file 7363 1647849331                                            
version 2
run StaticNetwork-1-20220321-08:54:25-572
attr configname StaticNetwork
attr datetime 20220321-08:54:25
attr experiment StaticNetwork
attr inifile omnetpp.ini
attr iterationvars "$0=1, $1=7, $2=0"
attr iterationvarsf 1,7,0-
attr measurement "$0=1, $1=7, $2=0"
attr network RAFT_Network
attr processid 572
attr repetition 1
attr replication #1
attr resultdir results
attr runnumber 1
attr seedset 1
param **.servers_number 5
param **.clients_number 5
param **.client[*].requestMsgTimeout "normal(7.0s, 1.5s)"
param **.cloud.propDelay "uniform(0.1s, 0.3s)"
param **.server[*].electionTimeout "normal(5.0s, 1s)"
param **.server[*].heartbeatTimeout 2s
param **.server[*].appendEntriesTimeout 4.5s
param **.server[*].checkFailureTimeout 1s
param **.server[*].checkRecoveryTimeout 1s
param **.failureProbability 1
param **.recoveryProbability 7
param **.messageLossProbability 0

vector 0 RAFT_Network.server[0] serverState ETV
vector 1 RAFT_Network.server[1] serverState ETV
vector 2 RAFT_Network.server[2] serverState ETV
vector 3 RAFT_Network.server[3] serverState ETV
vector 4 RAFT_Network.server[4] serverState ETV
0	1158 9 0 0 0 0 1 0 0 0 0
1	1167 9 0 0 0 0 1 0 0 0 0
2	1176 9 0 0 0 0 1 0 0 0 0
3	1185 9 0 0 0 0 1 0 0 0 0
4	1194 9 0 0 0 0 1 0 0 0 0
vector 5 RAFT_Network.server[2] totMsgSent ETV
vector 6 RAFT_Network.server[2] totRequestVoteMsgSent ETV
vector 7 RAFT_Network.server[0] totMsgReceived ETV
vector 8 RAFT_Network.server[0] totMsgSent ETV
vector 9 RAFT_Network.server[0] totReplyToClientRequestMsgSent ETV
vector 10 RAFT_Network.server[3] totMsgReceived ETV
vector 11 RAFT_Network.server[3] totMsgSent ETV
vector 12 RAFT_Network.server[3] totReplyToClientRequestMsgSent ETV
vector 13 RAFT_Network.server[4] totMsgSent ETV
vector 14 RAFT_Network.server[4] totRequestVoteMsgSent ETV
vector 15 RAFT_Network.server[2] totMsgReceived ETV
vector 16 RAFT_Network.server[2] totAppendEntriesMsgSent ETV
vector 17 RAFT_Network.server[2] totReplyToClientRequestMsgSent ETV
vector 18 RAFT_Network.server[1] totMsgReceived ETV
vector 19 RAFT_Network.server[1] totMsgSent ETV
vector 20 RAFT_Network.server[1] totReplyToClientRequestMsgSent ETV
vector 21 RAFT_Network.server[4] totMsgReceived ETV
vector 22 RAFT_Network.server[0] totReplyToAppendEntriesMsgSent ETV
vector 23 RAFT_Network.server[3] totReplyToAppendEntriesMsgSent ETV
vector 24 RAFT_Network.server[1] totReplyToAppendEntriesMsgSent ETV
vector 25 RAFT_Network.server[4] totReplyToClientRequestMsgSent ETV
vector 26 RAFT_Network.server[4] totReplyToAppendEntriesMsgSent ETV
0	2511 46 27 27 5.021919424931 5.021919424931 2 0 0 0 0
1	2557 46 34 34 5.069786013058 5.069786013058 2 0 0 0 0
2	2603 92 26 32 5.010483204601 5.060220235521 4 0 2 4 6
3	2695 46 28 28 5.049181574677 5.049181574677 2 0 0 0 0
4	2741 92 29 48 5.049181574677 5.205936151093 4 0 1 2 2
5	2833 207 26 33 5.010483204601 5.065987220529 9 1 9 45 285
6	3040 92 26 26 5.010483204601 5.010483204601 4 1 4 10 30
7	3132 69 27 36 5.021919424931 5.088387497088 3 1 3 6 14
8	3201 69 27 36 5.021919424931 5.088387497088 3 1 3 6 14
9	3270 46 27 30 5.021919424931 5.056745220561 2 1 2 3 5
10	3316 72 28 44 5.049181574677 5.150432135165 3 1 3 6 14
11	3388 72 28 44 5.049181574677 5.150432135165 3 1 3 6 14
12	3460 48 28 44 5.049181574677 5.150432135165 2 1 2 3 5
13	3508 144 29 48 5.049181574677 5.205936151093 6 1 6 21 91
14	3652 96 29 29 5.049181574677 5.049181574677 4 1 4 10 30
15	3748 215 31 50 5.059093909465 5.225773772615 9 1 9 45 285
16	3963 96 32 32 5.060220235521 5.060220235521 4 1 4 10 30
17	4059 24 33 33 5.065987220529 5.065987220529 1 1 1 1 1
18	4083 71 34 41 5.069786013058 5.125561981622 3 1 3 6 14
19	4154 71 34 41 5.069786013058 5.125561981622 3 1 3 6 14
20	4225 47 34 38 5.069786013058 5.09764558613 2 1 2 3 5
21	4272 130 35 51 5.071656455851 6 6 1 6 21 91
22	4402 24 36 36 5.088387497088 5.088387497088 1 1 1 1 1
23	4426 24 37 37 5.090081940246 5.090081940246 1 1 1 1 1
24	4450 24 41 41 5.125561981622 5.125561981622 1 1 1 1 1
25	4474 24 45 45 5.163784894245 5.163784894245 1 1 1 1 1
26	4498 24 48 48 5.205936151093 5.205936151093 1 1 1 1 1
7	4522 46 63 64 6.601313422944 6.773824777308 2 4 5 9 41
21	4568 24 66 66 6.946336131672 6.946336131672 1 7 7 7 49
5	4592 96 75 75 7.060220235521 7.060220235521 4 10 13 46 534
7	4688 23 76 76 7.074783802557 7.074783802557 1 6 6 6 36
8	4711 23 76 76 7.074783802557 7.074783802557 1 4 4 4 16
10	4734 24 78 78 7.111958287091 7.111958287091 1 4 4 4 16
11	4758 24 78 78 7.111958287091 7.111958287091 1 4 4 4 16
13	4782 24 84 84 7.248503115762 7.248503115762 1 7 7 7 49
15	4806 173 79 91 7.115724251449 7.66606761815 7 10 16 91 1211
16	4979 96 75 75 7.060220235521 7.060220235521 4 5 8 26 174
18	5075 24 80 80 7.119521932975 7.119521932975 1 4 4 4 16
19	5099 24 80 80 7.119521932975 7.119521932975 1 4 4 4 16
21	5123 24 84 84 7.248503115762 7.248503115762 1 8 8 8 64
22	5147 24 76 76 7.074783802557 7.074783802557 1 2 2 2 4
23	5171 24 78 78 7.111958287091 7.111958287091 1 2 2 2 4
24	5195 24 80 80 7.119521932975 7.119521932975 1 2 2 2 4
26	5219 24 84 84 7.248503115762 7.248503115762 1 2 2 2 4
18	5243 25 103 103 8.843212184066 8.843212184066 1 5 5 5 25
21	5268 25 101 101 8.401139055954 8.401139055954 1 9 9 9 81
5	5293 100 112 112 9.060220235521 9.060220235521 4 14 17 62 966
7	5393 24 113 113 9.071656455851 9.071656455851 1 7 7 7 49
8	5417 24 113 113 9.071656455851 9.071656455851 1 5 5 5 25
10	5441 25 115 115 9.108830940385 9.108830940385 1 5 5 5 25
11	5466 25 115 115 9.108830940385 9.108830940385 1 5 5 5 25
15	5491 52 114 116 9.088387497088 9.108830940385 2 17 18 35 613
16	5543 103 112 112 9.060220235521 9.060220235521 4 9 12 42 446
18	5646 25 117 117 9.115724251449 9.115724251449 1 6 6 6 36
19	5671 25 117 117 9.115724251449 9.115724251449 1 5 5 5 25
22	5696 25 113 113 9.071656455851 9.071656455851 1 3 3 3 9
23	5721 25 115 115 9.108830940385 9.108830940385 1 3 3 3 9
24	5746 25 117 117 9.115724251449 9.115724251449 1 3 3 3 9
15	5771 52 118 120 9.116394586269 9.153947164072 2 19 20 39 761
13	5823 25 122 122 9.200169166085 9.200169166085 1 8 8 8 64
15	5848 52 123 124 9.211207826929 9.342860264905 2 21 22 43 925
21	5900 26 122 122 9.200169166085 9.200169166085 1 10 10 10 100
26	5926 25 122 122 9.200169166085 9.200169166085 1 3 3 3 9
5	5951 225 125 130 9.560220235521 9.625561981622 9 18 26 198 4416
7	6176 24 126 126 9.588387497088 9.588387497088 1 8 8 8 64
8	6200 24 126 126 9.588387497088 9.588387497088 1 6 6 6 36
10	6224 25 127 127 9.615724251449 9.615724251449 1 6 6 6 36
11	6249 25 127 127 9.615724251449 9.615724251449 1 6 6 6 36
15	6274 78 129 131 9.623287897333 9.661510809956 3 23 25 72 1730
16	6352 104 125 125 9.560220235521 9.560220235521 4 13 16 58 846
17	6456 125 130 130 9.625561981622 9.625561981622 5 2 6 20 90
18	6581 25 128 128 9.623287897333 9.623287897333 1 7 7 7 49
19	6606 25 128 128 9.623287897333 9.623287897333 1 6 6 6 36
22	6631 25 126 126 9.588387497088 9.588387497088 1 4 4 4 16
23	6656 25 127 127 9.615724251449 9.615724251449 1 4 4 4 16
24	6681 25 128 128 9.623287897333 9.623287897333 1 4 4 4 16
vector 27 RAFT_Network.client[1] responseTime ETV
vector 28 RAFT_Network.client[0] responseTime ETV
vector 29 RAFT_Network.client[4] responseTime ETV
vector 30 RAFT_Network.client[2] responseTime ETV
vector 31 RAFT_Network.client[3] responseTime ETV
13	6961 25 137 137 9.870327954518 9.870327954518 1 9 9 9 81
15	6986 26 142 142 9.881366615362 9.881366615362 1 26 26 26 676
21	7012 26 137 137 9.870327954518 9.870327954518 1 11 11 11 121
26	7038 25 137 137 9.870327954518 9.870327954518 1 4 4 4 16
27	7063 38 138 138 9.870327954518 9.870327954518 1 3.604268616475 3.604268616475 3.604268616475 12.990752259707
28	7101 36 139 139 9.87278003699 9.87278003699 1 3.39850184333 3.39850184333 3.39850184333 11.549814779117
29	7137 38 140 140 9.873512328168 9.873512328168 1 1.811856901426 1.811856901426 1.811856901426 3.282825431245
30	7175 38 141 141 9.877642325008 9.877642325008 1 3.545002591887 3.545002591887 3.545002591887 12.567043376486
31	7213 38 147 147 9.973581209792 9.973581209792 1 1.587442699823 1.587442699823 1.587442699823 2.5199743252213
0	7251 22 147 147 9.9766347407 9.9766347407 1 0 0 0 0
1	7273 22 147 147 9.9766347407 9.9766347407 1 0 0 0 0
2	7295 22 147 147 9.9766347407 9.9766347407 1 2 2 2 4
3	7317 22 147 147 9.9766347407 9.9766347407 1 0 0 0 0
4	7339 22 147 147 9.9766347407 9.9766347407 1 0 0 0 0

