version 2
run StaticNetwork-0-20220401-09:14:02-20844
attr configname StaticNetwork
attr datetime 20220401-09:14:02
attr experiment StaticNetwork
attr inifile omnetpp.ini
attr iterationvars "$0=3, $1=5, $2=normal(7.0s, 1.5s), $3=uniform(0.1s, 0.3s), $4=normal(5.0s, 1s), $5=2s, $6=4.5s, $7=5s, $8=1s, $9=1, $10=7, $11=0"
attr iterationvarsf 3,5,normal(7.0s,_1.5s),uniform(0.1s,_0.3s),normal(5.0s,_1s),2s,4.5s,5s,1s,1,7,0-
attr measurement "$0=3, $1=5, $2=normal(7.0s, 1.5s), $3=uniform(0.1s, 0.3s), $4=normal(5.0s, 1s), $5=2s, $6=4.5s, $7=5s, $8=1s, $9=1, $10=7, $11=0"
attr network RAFT_Network
attr processid 20844
attr repetition 0
attr replication #0
attr resultdir results
attr runnumber 0
attr seedset 0
param **.servers_number 3
param **.clients_number 5
param **.client[*].requestMsgTimeout "normal(7.0s, 1.5s)"
param **.cloud.propDelay "uniform(0.1s, 0.3s)"
param **.server[*].electionTimeout "normal(5.0s, 1s)"
param **.server[*].heartbeatTimeout 2s
param **.server[*].appendEntriesTimeout 4.5s
param **.server[*].checkFailureTimeout 5s
param **.server[*].checkRecoveryTimeout 1s
param **.failureProbability 1
param **.recoveryProbability 7
param **.messageLossProbability 0

vector 0 RAFT_Network.server[0] serverState ETV
vector 1 RAFT_Network.server[1] serverState ETV
vector 2 RAFT_Network.server[2] serverState ETV
vector 3 RAFT_Network.server[0] totMsgSent ETV
vector 4 RAFT_Network.server[0] totRequestVoteMsgSent ETV
vector 5 RAFT_Network.server[1] totMsgReceived ETV
vector 6 RAFT_Network.server[1] totMsgSent ETV
vector 7 RAFT_Network.server[1] totReplyToClientRequestMsgSent ETV
vector 8 RAFT_Network.server[2] totMsgReceived ETV
vector 9 RAFT_Network.server[2] totMsgSent ETV
vector 10 RAFT_Network.server[2] totReplyToClientRequestMsgSent ETV
vector 11 RAFT_Network.server[0] totMsgReceived ETV
vector 12 RAFT_Network.server[0] electionsMeanTime ETV
vector 13 RAFT_Network.server[0] totAppendEntriesMsgSent ETV
vector 14 RAFT_Network.server[1] totReplyToAppendEntriesMsgSent ETV
vector 15 RAFT_Network.server[2] totReplyToAppendEntriesMsgSent ETV
vector 16 RAFT_Network.server[0] totReplyToClientRequestMsgSent ETV
vector 17 RAFT_Network.client[1] responseTime ETV
vector 18 RAFT_Network.client[3] responseTime ETV
vector 19 RAFT_Network.client[2] responseTime ETV
vector 20 RAFT_Network.client[0] responseTime ETV
vector 21 RAFT_Network.client[4] responseTime ETV
vector 22 RAFT_Network.server[2] totRequestVoteMsgSent ETV
vector 23 RAFT_Network.server[1] totRequestVoteMsgSent ETV
vector 24 RAFT_Network.server[2] totAppendEntriesMsgSent ETV
vector 25 RAFT_Network.server[0] totReplyToAppendEntriesMsgSent ETV
0	0	0	0
0	1	3.947009828233	0
0	1	3.947009828233	1
0	4	3.987107740522	1
0	4	3.987107740522	2
0	4957	575	2
0	4957	575	-1
0	5318	621	-1
0	5318	621	0
0	5323	621.924410479566	0
0	5323	621.924410479566	0
0	7475	871.871420307799	0
0	7475	871.871420307799	1
0	7478	871.911518220088	1
0	7478	871.911518220088	2
0	8947	1041	2
0	8947	1041	-1
0	8981	1046	-1
0	8981	1046	0
0	8999	1049.947009828233	0
0	8999	1049.947009828233	1
0	9015	1051.72757669345	1
0	9015	1051.72757669345	0
0	10374	1209.795830787365	0
0	10374	1209.795830787365	1
0	10377	1209.835928699654	1
0	10377	1209.835928699654	2
0	25886	3000	2
1	0	0	0
1	2	3.962927635275	0
1	2	3.962927635275	0
1	4754	550	0
1	4754	550	-1
1	4796	555	-1
1	4796	555	0
1	4985	579.887806329976	0
1	4985	579.887806329976	1
1	5025	585.762355113669	1
1	5025	585.762355113669	0
1	6607	770	0
1	6607	770	-1
1	6785	789	-1
1	6785	789	0
1	7476	871.887338114841	0
1	7476	871.887338114841	0
1	7766	904	0
1	7766	904	-1
1	7780	906	-1
1	7780	906	0
1	8339	971	0
1	8339	971	-1
1	8523	992	-1
1	8523	992	0
1	8971	1045.812216809542	0
1	8971	1045.812216809542	1
1	9014	1051.686765593235	1
1	9014	1051.686765593235	0
1	10375	1209.811748594407	0
1	10375	1209.811748594407	0
1	20066	2327	0
1	20066	2327	-1
1	20463	2373	-1
1	20463	2373	0
1	24233	2808	0
1	24233	2808	-1
1	24327	2820	-1
1	24327	2820	0
1	25245	2925	0
1	25245	2925	-1
1	25338	2936	-1
1	25338	2936	0
1	25886	3000	0
2	0	0	0
2	3	3.979482145646	0
2	3	3.979482145646	0
2	1061	125	0
2	1061	125	-1
2	1367	159	-1
2	1367	159	0
2	4984	579.872150732969	0
2	4984	579.872150732969	1
2	5024	585.724721408003	1
2	5024	585.724721408003	1
2	5027	585.845965673685	1
2	5027	585.845965673685	2
2	7462	869	2
2	7462	869	-1
2	7508	876	-1
2	7508	876	0
2	7515	876.443990537501	0
2	7515	876.443990537501	0
2	8970	1045.796561212535	0
2	8970	1045.796561212535	1
2	9013	1051.649131887569	1
2	9013	1051.649131887569	1
2	9017	1051.770376153251	1
2	9017	1051.770376153251	2
2	10369	1206	2
2	10369	1206	-1
2	10373	1208	-1
2	10373	1208	0
2	10376	1209.828303104778	0
2	10376	1209.828303104778	0
2	12627	1468	0
2	12627	1468	-1
2	12672	1475	-1
2	12672	1475	0
2	15062	1750	0
2	15062	1750	-1
2	15297	1777	-1
2	15297	1777	0
2	24170	2802	0
2	24170	2802	-1
2	24181	2803	-1
2	24181	2803	0
2	25886	3000	0
3	1	3.947009828233	1
3	1	3.947009828233	2
3	4	3.987107740522	3
3	4	3.987107740522	4
3	19	5.987107740522	5
3	19	5.987107740522	6
3	39	7.987107740522	7
3	39	7.987107740522	8
3	47	8.487107740522	9
3	47	8.487107740522	10
3	50	8.527205652811	11
3	50	8.527205652811	12
3	50	8.527205652811	13
3	70	9.987107740522	14
3	70	9.987107740522	15
3	83	11.987107740522	16
3	83	11.987107740522	17
3	88	12.987107740522	18
3	88	12.987107740522	19
3	91	13.027205652811	20
3	91	13.027205652811	21
3	91	13.027205652811	22
3	91	13.027205652811	23
3	91	13.027205652811	24
3	113	13.987107740522	25
3	113	13.987107740522	26
3	121	15.987107740522	27
3	121	15.987107740522	28
3	126	17.487107740522	29
3	126	17.487107740522	30
3	129	17.527205652811	31
3	129	17.527205652811	32
3	129	17.527205652811	33
3	129	17.527205652811	34
3	129	17.527205652811	35
3	145	17.987107740522	36
3	145	17.987107740522	37
3	156	19.987107740522	38
3	156	19.987107740522	39
3	164	21.987107740522	40
3	164	21.987107740522	41
3	165	21.987107740522	42
3	165	21.987107740522	43
3	170	22.027205652811	44
3	170	22.027205652811	45
3	170	22.027205652811	46
3	170	22.027205652811	47
3	170	22.027205652811	48
3	194	23.987107740522	49
3	194	23.987107740522	50
3	202	25.987107740522	51
3	202	25.987107740522	52
3	207	26.487107740522	53
3	207	26.487107740522	54
3	210	26.527205652811	55
3	210	26.527205652811	56
3	210	26.527205652811	57
3	210	26.527205652811	58
3	210	26.527205652811	59
3	232	27.987107740522	60
3	232	27.987107740522	61
3	237	29.987107740522	62
3	237	29.987107740522	63
3	245	30.987107740522	64
3	245	30.987107740522	65
3	248	31.027205652811	66
3	248	31.027205652811	67
3	248	31.027205652811	68
3	248	31.027205652811	69
3	248	31.027205652811	70
3	270	31.987107740522	71
3	270	31.987107740522	72
3	275	33.987107740522	73
3	275	33.987107740522	74
3	283	35.487107740522	75
3	283	35.487107740522	76
3	286	35.527205652811	77
3	286	35.527205652811	78
3	286	35.527205652811	79
3	286	35.527205652811	80
3	286	35.527205652811	81
3	302	35.987107740522	82
3	302	35.987107740522	83
3	313	37.987107740522	84
3	313	37.987107740522	85
3	318	39.987107740522	86
3	318	39.987107740522	87
3	319	39.987107740522	88
3	319	39.987107740522	89
3	327	40.027205652811	90
3	327	40.027205652811	91
3	327	40.027205652811	92
3	327	40.027205652811	93
3	327	40.027205652811	94
3	351	41.987107740522	95
3	351	41.987107740522	96
3	356	43.987107740522	97
3	356	43.987107740522	98
3	361	44.487107740522	99
3	361	44.487107740522	100
3	364	44.527205652811	101
3	364	44.527205652811	102
3	364	44.527205652811	103
3	364	44.527205652811	104
3	364	44.527205652811	105
3	389	45.987107740522	106
3	389	45.987107740522	107
3	394	47.987107740522	108
3	394	47.987107740522	109
3	399	48.987107740522	110
3	399	48.987107740522	111
3	402	49.027205652811	112
3	402	49.027205652811	113
3	402	49.027205652811	114
3	402	49.027205652811	115
3	402	49.027205652811	116
3	424	49.987107740522	117
3	424	49.987107740522	118
3	432	51.987107740522	119
3	432	51.987107740522	120
3	437	53.487107740522	121
3	437	53.487107740522	122
3	440	53.527205652811	123
3	440	53.527205652811	124
3	440	53.527205652811	125
3	440	53.527205652811	126
3	440	53.527205652811	127
3	456	53.987107740522	128
3	456	53.987107740522	129
3	470	55.987107740522	130
3	470	55.987107740522	131
3	475	57.987107740522	132
3	475	57.987107740522	133
3	476	57.987107740522	134
3	476	57.987107740522	135
3	481	58.027205652811	136
3	481	58.027205652811	137
3	481	58.027205652811	138
3	481	58.027205652811	139
3	481	58.027205652811	140
3	505	59.987107740522	141
3	505	59.987107740522	142
3	513	61.987107740522	143
3	513	61.987107740522	144
3	518	62.487107740522	145
3	518	62.487107740522	146
3	521	62.527205652811	147
3	521	62.527205652811	148
3	521	62.527205652811	149
3	521	62.527205652811	150
3	521	62.527205652811	151
3	543	63.987107740522	152
3	543	63.987107740522	153
3	551	65.987107740522	154
3	551	65.987107740522	155
3	556	66.987107740522	156
3	556	66.987107740522	157
3	559	67.027205652811	158
3	559	67.027205652811	159
3	559	67.027205652811	160
3	559	67.027205652811	161
3	559	67.027205652811	162
3	581	67.987107740522	163
3	581	67.987107740522	164
3	586	69.987107740522	165
3	586	69.987107740522	166
3	594	71.487107740522	167
3	594	71.487107740522	168
3	597	71.527205652811	169
3	597	71.527205652811	170
3	597	71.527205652811	171
3	597	71.527205652811	172
3	597	71.527205652811	173
3	613	71.987107740522	174
3	613	71.987107740522	175
3	624	73.987107740522	176
3	624	73.987107740522	177
3	632	75.987107740522	178
3	632	75.987107740522	179
3	633	75.987107740522	180
3	633	75.987107740522	181
3	638	76.027205652811	182
3	638	76.027205652811	183
3	638	76.027205652811	184
3	638	76.027205652811	185
3	638	76.027205652811	186
3	662	77.987107740522	187
3	662	77.987107740522	188
3	667	79.987107740522	189
3	667	79.987107740522	190
3	675	80.487107740522	191
3	675	80.487107740522	192
3	678	80.527205652811	193
3	678	80.527205652811	194
3	678	80.527205652811	195
3	678	80.527205652811	196
3	678	80.527205652811	197
3	700	81.987107740522	198
3	700	81.987107740522	199
3	705	83.987107740522	200
3	705	83.987107740522	201
3	710	84.987107740522	202
3	710	84.987107740522	203
3	716	85.027205652811	204
3	716	85.027205652811	205
3	716	85.027205652811	206
3	716	85.027205652811	207
3	716	85.027205652811	208
3	738	85.987107740522	209
3	738	85.987107740522	210
3	743	87.987107740522	211
3	743	87.987107740522	212
3	748	89.487107740522	213
3	748	89.487107740522	214
3	751	89.527205652811	215
3	751	89.527205652811	216
3	751	89.527205652811	217
3	751	89.527205652811	218
3	751	89.527205652811	219
3	767	89.987107740522	220
3	767	89.987107740522	221
3	781	91.987107740522	222
3	781	91.987107740522	223
3	786	93.987107740522	224
3	786	93.987107740522	225
3	787	93.987107740522	226
3	787	93.987107740522	227
3	792	94.027205652811	228
3	792	94.027205652811	229
3	792	94.027205652811	230
3	792	94.027205652811	231
3	792	94.027205652811	232
3	819	95.987107740522	233
3	819	95.987107740522	234
3	824	97.987107740522	235
3	824	97.987107740522	236
3	829	98.487107740522	237
3	829	98.487107740522	238
3	832	98.527205652811	239
3	832	98.527205652811	240
3	832	98.527205652811	241
3	832	98.527205652811	242
3	832	98.527205652811	243
3	854	99.987107740522	244
3	854	99.987107740522	245
3	862	101.987107740522	246
3	862	101.987107740522	247
3	867	102.987107740522	248
3	867	102.987107740522	249
3	870	103.027205652811	250
3	870	103.027205652811	251
3	870	103.027205652811	252
3	870	103.027205652811	253
3	870	103.027205652811	254
3	892	103.987107740522	255
3	892	103.987107740522	256
3	900	105.987107740522	257
3	900	105.987107740522	258
3	905	107.487107740522	259
3	905	107.487107740522	260
3	908	107.527205652811	261
3	908	107.527205652811	262
3	908	107.527205652811	263
3	908	107.527205652811	264
3	908	107.527205652811	265
3	924	107.987107740522	266
3	924	107.987107740522	267
3	935	109.987107740522	268
3	935	109.987107740522	269
3	943	111.987107740522	270
3	943	111.987107740522	271
3	944	111.987107740522	272
3	944	111.987107740522	273
3	949	112.027205652811	274
3	949	112.027205652811	275
3	949	112.027205652811	276
3	949	112.027205652811	277
3	949	112.027205652811	278
3	973	113.987107740522	279
3	973	113.987107740522	280
3	981	115.987107740522	281
3	981	115.987107740522	282
3	986	116.487107740522	283
3	986	116.487107740522	284
3	989	116.527205652811	285
3	989	116.527205652811	286
3	989	116.527205652811	287
3	989	116.527205652811	288
3	989	116.527205652811	289
3	1011	117.987107740522	290
3	1011	117.987107740522	291
3	1016	119.987107740522	292
3	1016	119.987107740522	293
3	1024	120.987107740522	294
3	1024	120.987107740522	295
3	1027	121.027205652811	296
3	1027	121.027205652811	297
3	1027	121.027205652811	298
3	1027	121.027205652811	299
3	1027	121.027205652811	300
3	1049	121.987107740522	301
3	1049	121.987107740522	302
3	1054	123.987107740522	303
3	1054	123.987107740522	304
3	1062	125.487107740522	305
3	1062	125.487107740522	306
3	1065	125.527205652811	307
3	1065	125.527205652811	308
3	1065	125.527205652811	309
3	1065	125.527205652811	310
3	1065	125.527205652811	311
3	1080	125.987107740522	312
3	1080	125.987107740522	313
3	1092	127.987107740522	314
3	1092	127.987107740522	315
3	1098	129.987107740522	316
3	1098	129.987107740522	317
3	1099	129.987107740522	318
3	1099	129.987107740522	319
3	1107	130.027205652811	320
3	1107	130.027205652811	321
3	1107	130.027205652811	322
3	1107	130.027205652811	323
3	1107	130.027205652811	324
3	1130	131.987107740522	325
3	1130	131.987107740522	326
3	1136	133.987107740522	327
3	1136	133.987107740522	328
3	1141	134.487107740522	329
3	1141	134.487107740522	330
3	1144	134.527205652811	331
3	1144	134.527205652811	332
3	1144	134.527205652811	333
3	1144	134.527205652811	334
3	1144	134.527205652811	335
3	1168	135.987107740522	336
3	1168	135.987107740522	337
3	1174	137.987107740522	338
3	1174	137.987107740522	339
3	1179	138.987107740522	340
3	1179	138.987107740522	341
3	1183	139.027205652811	342
3	1183	139.027205652811	343
3	1183	139.027205652811	344
3	1183	139.027205652811	345
3	1183	139.027205652811	346
3	1204	139.987107740522	347
3	1204	139.987107740522	348
3	1212	141.987107740522	349
3	1212	141.987107740522	350
3	1218	143.487107740522	351
3	1218	143.487107740522	352
3	1221	143.527205652811	353
3	1221	143.527205652811	354
3	1221	143.527205652811	355
3	1221	143.527205652811	356
3	1221	143.527205652811	357
3	1236	143.987107740522	358
3	1236	143.987107740522	359
3	1250	145.987107740522	360
3	1250	145.987107740522	361
3	1256	147.987107740522	362
3	1256	147.987107740522	363
3	1257	147.987107740522	364
3	1257	147.987107740522	365
3	1263	148.027205652811	366
3	1263	148.027205652811	367
3	1263	148.027205652811	368
3	1263	148.027205652811	369
3	1263	148.027205652811	370
3	1286	149.987107740522	371
3	1286	149.987107740522	372
3	1294	151.987107740522	373
3	1294	151.987107740522	374
3	1299	152.487107740522	375
3	1299	152.487107740522	376
3	1302	152.527205652811	377
3	1302	152.527205652811	378
3	1302	152.527205652811	379
3	1302	152.527205652811	380
3	1302	152.527205652811	381
3	1324	153.987107740522	382
3	1324	153.987107740522	383
3	1332	155.987107740522	384
3	1332	155.987107740522	385
3	1337	156.987107740522	386
3	1337	156.987107740522	387
3	1341	157.027205652811	388
3	1341	157.027205652811	389
3	1341	157.027205652811	390
3	1341	157.027205652811	391
3	1341	157.027205652811	392
3	1362	157.987107740522	393
3	1362	157.987107740522	394
3	1368	159.987107740522	395
3	1368	159.987107740522	396
3	1375	161.487107740522	397
3	1375	161.487107740522	398
3	1378	161.527205652811	399
3	1378	161.527205652811	400
3	1378	161.527205652811	401
3	1378	161.527205652811	402
3	1378	161.527205652811	403
3	1394	161.987107740522	404
3	1394	161.987107740522	405
3	1405	163.987107740522	406
3	1405	163.987107740522	407
3	1413	165.987107740522	408
3	1413	165.987107740522	409
3	1414	165.987107740522	410
3	1414	165.987107740522	411
3	1419	166.027205652811	412
3	1419	166.027205652811	413
3	1419	166.027205652811	414
3	1419	166.027205652811	415
3	1419	166.027205652811	416
3	1443	167.987107740522	417
3	1443	167.987107740522	418
3	1449	169.987107740522	419
3	1449	169.987107740522	420
3	1456	170.487107740522	421
3	1456	170.487107740522	422
3	1459	170.527205652811	423
3	1459	170.527205652811	424
3	1459	170.527205652811	425
3	1459	170.527205652811	426
3	1459	170.527205652811	427
3	1481	171.987107740522	428
3	1481	171.987107740522	429
3	1486	173.987107740522	430
3	1486	173.987107740522	431
3	1492	174.987107740522	432
3	1492	174.987107740522	433
3	1497	175.027205652811	434
3	1497	175.027205652811	435
3	1497	175.027205652811	436
3	1497	175.027205652811	437
3	1497	175.027205652811	438
3	1519	175.987107740522	439
3	1519	175.987107740522	440
3	1524	177.987107740522	441
3	1524	177.987107740522	442
3	1530	179.487107740522	443
3	1530	179.487107740522	444
3	1533	179.527205652811	445
3	1533	179.527205652811	446
3	1533	179.527205652811	447
3	1533	179.527205652811	448
3	1533	179.527205652811	449
3	1549	179.987107740522	450
3	1549	179.987107740522	451
3	1562	181.987107740522	452
3	1562	181.987107740522	453
3	1567	183.987107740522	454
3	1567	183.987107740522	455
3	1568	183.987107740522	456
3	1568	183.987107740522	457
3	1574	184.027205652811	458
3	1574	184.027205652811	459
3	1574	184.027205652811	460
3	1574	184.027205652811	461
3	1574	184.027205652811	462
3	1600	185.987107740522	463
3	1600	185.987107740522	464
3	1605	187.987107740522	465
3	1605	187.987107740522	466
3	1610	188.487107740522	467
3	1610	188.487107740522	468
3	1613	188.527205652811	469
3	1613	188.527205652811	470
3	1613	188.527205652811	471
3	1613	188.527205652811	472
3	1613	188.527205652811	473
3	1636	189.987107740522	474
3	1636	189.987107740522	475
3	1643	191.987107740522	476
3	1643	191.987107740522	477
3	1648	192.987107740522	478
3	1648	192.987107740522	479
3	1651	193.027205652811	480
3	1651	193.027205652811	481
3	1651	193.027205652811	482
3	1651	193.027205652811	483
3	1651	193.027205652811	484
3	1673	193.987107740522	485
3	1673	193.987107740522	486
3	1681	195.987107740522	487
3	1681	195.987107740522	488
3	1686	197.487107740522	489
3	1686	197.487107740522	490
3	1689	197.527205652811	491
3	1689	197.527205652811	492
3	1689	197.527205652811	493
3	1689	197.527205652811	494
3	1689	197.527205652811	495
3	1705	197.987107740522	496
3	1705	197.987107740522	497
3	1717	199.987107740522	498
3	1717	199.987107740522	499
3	1724	201.987107740522	500
3	1724	201.987107740522	501
3	1725	201.987107740522	502
3	1725	201.987107740522	503
3	1730	202.027205652811	504
3	1730	202.027205652811	505
3	1730	202.027205652811	506
3	1730	202.027205652811	507
3	1730	202.027205652811	508
3	1754	203.987107740522	509
3	1754	203.987107740522	510
3	1762	205.987107740522	511
3	1762	205.987107740522	512
3	1767	206.487107740522	513
3	1767	206.487107740522	514
3	1770	206.527205652811	515
3	1770	206.527205652811	516
3	1770	206.527205652811	517
3	1770	206.527205652811	518
3	1770	206.527205652811	519
3	1792	207.987107740522	520
3	1792	207.987107740522	521
3	1798	209.987107740522	522
3	1798	209.987107740522	523
3	1805	210.987107740522	524
3	1805	210.987107740522	525
3	1808	211.027205652811	526
3	1808	211.027205652811	527
3	1808	211.027205652811	528
3	1808	211.027205652811	529
3	1808	211.027205652811	530
3	1830	211.987107740522	531
3	1830	211.987107740522	532
3	1835	213.987107740522	533
3	1835	213.987107740522	534
3	1843	215.487107740522	535
3	1843	215.487107740522	536
3	1846	215.527205652811	537
3	1846	215.527205652811	538
3	1846	215.527205652811	539
3	1846	215.527205652811	540
3	1846	215.527205652811	541
3	1862	215.987107740522	542
3	1862	215.987107740522	543
3	1873	217.987107740522	544
3	1873	217.987107740522	545
3	1879	219.987107740522	546
3	1879	219.987107740522	547
3	1880	219.987107740522	548
3	1880	219.987107740522	549
3	1887	220.027205652811	550
3	1887	220.027205652811	551
3	1887	220.027205652811	552
3	1887	220.027205652811	553
3	1887	220.027205652811	554
3	1911	221.987107740522	555
3	1911	221.987107740522	556
3	1916	223.987107740522	557
3	1916	223.987107740522	558
3	1922	224.487107740522	559
3	1922	224.487107740522	560
3	1925	224.527205652811	561
3	1925	224.527205652811	562
3	1925	224.527205652811	563
3	1925	224.527205652811	564
3	1925	224.527205652811	565
3	1949	225.987107740522	566
3	1949	225.987107740522	567
3	1954	227.987107740522	568
3	1954	227.987107740522	569
3	1959	228.987107740522	570
3	1959	228.987107740522	571
3	1963	229.027205652811	572
3	1963	229.027205652811	573
3	1963	229.027205652811	574
3	1963	229.027205652811	575
3	1963	229.027205652811	576
3	1985	229.987107740522	577
3	1985	229.987107740522	578
3	1992	231.987107740522	579
3	1992	231.987107740522	580
3	1997	233.487107740522	581
3	1997	233.487107740522	582
3	2000	233.527205652811	583
3	2000	233.527205652811	584
3	2000	233.527205652811	585
3	2000	233.527205652811	586
3	2000	233.527205652811	587
3	2016	233.987107740522	588
3	2016	233.987107740522	589
3	2030	235.987107740522	590
3	2030	235.987107740522	591
3	2035	237.987107740522	592
3	2035	237.987107740522	593
3	2036	237.987107740522	594
3	2036	237.987107740522	595
3	2041	238.027205652811	596
3	2041	238.027205652811	597
3	2041	238.027205652811	598
3	2041	238.027205652811	599
3	2041	238.027205652811	600
3	2066	239.987107740522	601
3	2066	239.987107740522	602
3	2073	241.987107740522	603
3	2073	241.987107740522	604
3	2078	242.487107740522	605
3	2078	242.487107740522	606
3	2081	242.527205652811	607
3	2081	242.527205652811	608
3	2081	242.527205652811	609
3	2081	242.527205652811	610
3	2081	242.527205652811	611
3	2103	243.987107740522	612
3	2103	243.987107740522	613
3	2111	245.987107740522	614
3	2111	245.987107740522	615
3	2116	246.987107740522	616
3	2116	246.987107740522	617
3	2119	247.027205652811	618
3	2119	247.027205652811	619
3	2119	247.027205652811	620
3	2119	247.027205652811	621
3	2119	247.027205652811	622
3	2141	247.987107740522	623
3	2141	247.987107740522	624
3	2147	249.987107740522	625
3	2147	249.987107740522	626
3	2154	251.487107740522	627
3	2154	251.487107740522	628
3	2157	251.527205652811	629
3	2157	251.527205652811	630
3	2157	251.527205652811	631
3	2157	251.527205652811	632
3	2157	251.527205652811	633
3	2173	251.987107740522	634
3	2173	251.987107740522	635
3	2184	253.987107740522	636
3	2184	253.987107740522	637
3	2192	255.987107740522	638
3	2192	255.987107740522	639
3	2193	255.987107740522	640
3	2193	255.987107740522	641
3	2198	256.027205652811	642
3	2198	256.027205652811	643
3	2198	256.027205652811	644
3	2198	256.027205652811	645
3	2198	256.027205652811	646
3	2222	257.987107740522	647
3	2222	257.987107740522	648
3	2228	259.987107740522	649
3	2228	259.987107740522	650
3	2235	260.487107740522	651
3	2235	260.487107740522	652
3	2238	260.527205652811	653
3	2238	260.527205652811	654
3	2238	260.527205652811	655
3	2238	260.527205652811	656
3	2238	260.527205652811	657
3	2260	261.987107740522	658
3	2260	261.987107740522	659
3	2265	263.987107740522	660
3	2265	263.987107740522	661
3	2271	264.987107740522	662
3	2271	264.987107740522	663
3	2276	265.027205652811	664
3	2276	265.027205652811	665
3	2276	265.027205652811	666
3	2276	265.027205652811	667
3	2276	265.027205652811	668
3	2298	265.987107740522	669
3	2298	265.987107740522	670
3	2303	267.987107740522	671
3	2303	267.987107740522	672
3	2309	269.487107740522	673
3	2309	269.487107740522	674
3	2312	269.527205652811	675
3	2312	269.527205652811	676
3	2312	269.527205652811	677
3	2312	269.527205652811	678
3	2312	269.527205652811	679
3	2328	269.987107740522	680
3	2328	269.987107740522	681
3	2341	271.987107740522	682
3	2341	271.987107740522	683
3	2346	273.987107740522	684
3	2346	273.987107740522	685
3	2347	273.987107740522	686
3	2347	273.987107740522	687
3	2353	274.027205652811	688
3	2353	274.027205652811	689
3	2353	274.027205652811	690
3	2353	274.027205652811	691
3	2353	274.027205652811	692
3	2379	275.987107740522	693
3	2379	275.987107740522	694
3	2384	277.987107740522	695
3	2384	277.987107740522	696
3	2389	278.487107740522	697
3	2389	278.487107740522	698
3	2392	278.527205652811	699
3	2392	278.527205652811	700
3	2392	278.527205652811	701
3	2392	278.527205652811	702
3	2392	278.527205652811	703
3	2415	279.987107740522	704
3	2415	279.987107740522	705
3	2422	281.987107740522	706
3	2422	281.987107740522	707
3	2427	282.987107740522	708
3	2427	282.987107740522	709
3	2430	283.027205652811	710
3	2430	283.027205652811	711
3	2430	283.027205652811	712
3	2430	283.027205652811	713
3	2430	283.027205652811	714
3	2452	283.987107740522	715
3	2452	283.987107740522	716
3	2460	285.987107740522	717
3	2460	285.987107740522	718
3	2465	287.487107740522	719
3	2465	287.487107740522	720
3	2468	287.527205652811	721
3	2468	287.527205652811	722
3	2468	287.527205652811	723
3	2468	287.527205652811	724
3	2468	287.527205652811	725
3	2484	287.987107740522	726
3	2484	287.987107740522	727
3	2496	289.987107740522	728
3	2496	289.987107740522	729
3	2503	291.987107740522	730
3	2503	291.987107740522	731
3	2504	291.987107740522	732
3	2504	291.987107740522	733
3	2509	292.027205652811	734
3	2509	292.027205652811	735
3	2509	292.027205652811	736
3	2509	292.027205652811	737
3	2509	292.027205652811	738
3	2533	293.987107740522	739
3	2533	293.987107740522	740
3	2541	295.987107740522	741
3	2541	295.987107740522	742
3	2546	296.487107740522	743
3	2546	296.487107740522	744
3	2549	296.527205652811	745
3	2549	296.527205652811	746
3	2549	296.527205652811	747
3	2549	296.527205652811	748
3	2549	296.527205652811	749
3	2571	297.987107740522	750
3	2571	297.987107740522	751
3	2577	299.987107740522	752
3	2577	299.987107740522	753
3	2584	300.987107740522	754
3	2584	300.987107740522	755
3	2587	301.027205652811	756
3	2587	301.027205652811	757
3	2587	301.027205652811	758
3	2587	301.027205652811	759
3	2587	301.027205652811	760
3	2609	301.987107740522	761
3	2609	301.987107740522	762
3	2614	303.987107740522	763
3	2614	303.987107740522	764
3	2622	305.487107740522	765
3	2622	305.487107740522	766
3	2625	305.527205652811	767
3	2625	305.527205652811	768
3	2625	305.527205652811	769
3	2625	305.527205652811	770
3	2625	305.527205652811	771
3	2641	305.987107740522	772
3	2641	305.987107740522	773
3	2652	307.987107740522	774
3	2652	307.987107740522	775
3	2658	309.987107740522	776
3	2658	309.987107740522	777
3	2659	309.987107740522	778
3	2659	309.987107740522	779
3	2666	310.027205652811	780
3	2666	310.027205652811	781
3	2666	310.027205652811	782
3	2666	310.027205652811	783
3	2666	310.027205652811	784
3	2690	311.987107740522	785
3	2690	311.987107740522	786
3	2695	313.987107740522	787
3	2695	313.987107740522	788
3	2701	314.487107740522	789
3	2701	314.487107740522	790
3	2704	314.527205652811	791
3	2704	314.527205652811	792
3	2704	314.527205652811	793
3	2704	314.527205652811	794
3	2704	314.527205652811	795
3	2728	315.987107740522	796
3	2728	315.987107740522	797
3	2733	317.987107740522	798
3	2733	317.987107740522	799
3	2738	318.987107740522	800
3	2738	318.987107740522	801
3	2742	319.027205652811	802
3	2742	319.027205652811	803
3	2742	319.027205652811	804
3	2742	319.027205652811	805
3	2742	319.027205652811	806
3	2764	319.987107740522	807
3	2764	319.987107740522	808
3	2771	321.987107740522	809
3	2771	321.987107740522	810
3	2776	323.487107740522	811
3	2776	323.487107740522	812
3	2779	323.527205652811	813
3	2779	323.527205652811	814
3	2779	323.527205652811	815
3	2779	323.527205652811	816
3	2779	323.527205652811	817
3	2795	323.987107740522	818
3	2795	323.987107740522	819
3	2809	325.987107740522	820
3	2809	325.987107740522	821
3	2814	327.987107740522	822
3	2814	327.987107740522	823
3	2815	327.987107740522	824
3	2815	327.987107740522	825
3	2820	328.027205652811	826
3	2820	328.027205652811	827
3	2820	328.027205652811	828
3	2820	328.027205652811	829
3	2820	328.027205652811	830
3	2845	329.987107740522	831
3	2845	329.987107740522	832
3	2852	331.987107740522	833
3	2852	331.987107740522	834
3	2857	332.487107740522	835
3	2857	332.487107740522	836
3	2860	332.527205652811	837
3	2860	332.527205652811	838
3	2860	332.527205652811	839
3	2860	332.527205652811	840
3	2860	332.527205652811	841
3	2882	333.987107740522	842
3	2882	333.987107740522	843
3	2890	335.987107740522	844
3	2890	335.987107740522	845
3	2895	336.987107740522	846
3	2895	336.987107740522	847
3	2898	337.027205652811	848
3	2898	337.027205652811	849
3	2898	337.027205652811	850
3	2898	337.027205652811	851
3	2898	337.027205652811	852
3	2920	337.987107740522	853
3	2920	337.987107740522	854
3	2926	339.987107740522	855
3	2926	339.987107740522	856
3	2933	341.487107740522	857
3	2933	341.487107740522	858
3	2936	341.527205652811	859
3	2936	341.527205652811	860
3	2936	341.527205652811	861
3	2936	341.527205652811	862
3	2936	341.527205652811	863
3	2952	341.987107740522	864
3	2952	341.987107740522	865
3	2963	343.987107740522	866
3	2963	343.987107740522	867
3	2971	345.987107740522	868
3	2971	345.987107740522	869
3	2972	345.987107740522	870
3	2972	345.987107740522	871
3	2977	346.027205652811	872
3	2977	346.027205652811	873
3	2977	346.027205652811	874
3	2977	346.027205652811	875
3	2977	346.027205652811	876
3	3001	347.987107740522	877
3	3001	347.987107740522	878
3	3007	349.987107740522	879
3	3007	349.987107740522	880
3	3014	350.487107740522	881
3	3014	350.487107740522	882
3	3017	350.527205652811	883
3	3017	350.527205652811	884
3	3017	350.527205652811	885
3	3017	350.527205652811	886
3	3017	350.527205652811	887
3	3039	351.987107740522	888
3	3039	351.987107740522	889
3	3044	353.987107740522	890
3	3044	353.987107740522	891
3	3050	354.987107740522	892
3	3050	354.987107740522	893
3	3055	355.027205652811	894
3	3055	355.027205652811	895
3	3055	355.027205652811	896
3	3055	355.027205652811	897
3	3055	355.027205652811	898
3	3077	355.987107740522	899
3	3077	355.987107740522	900
3	3082	357.987107740522	901
3	3082	357.987107740522	902
3	3088	359.487107740522	903
3	3088	359.487107740522	904
3	3091	359.527205652811	905
3	3091	359.527205652811	906
3	3091	359.527205652811	907
3	3091	359.527205652811	908
3	3091	359.527205652811	909
3	3107	359.987107740522	910
3	3107	359.987107740522	911
3	3120	361.987107740522	912
3	3120	361.987107740522	913
3	3125	363.987107740522	914
3	3125	363.987107740522	915
3	3126	363.987107740522	916
3	3126	363.987107740522	917
3	3132	364.027205652811	918
3	3132	364.027205652811	919
3	3132	364.027205652811	920
3	3132	364.027205652811	921
3	3132	364.027205652811	922
3	3158	365.987107740522	923
3	3158	365.987107740522	924
3	3163	367.987107740522	925
3	3163	367.987107740522	926
3	3168	368.487107740522	927
3	3168	368.487107740522	928
3	3171	368.527205652811	929
3	3171	368.527205652811	930
3	3171	368.527205652811	931
3	3171	368.527205652811	932
3	3171	368.527205652811	933
3	3194	369.987107740522	934
3	3194	369.987107740522	935
3	3201	371.987107740522	936
3	3201	371.987107740522	937
3	3206	372.987107740522	938
3	3206	372.987107740522	939
3	3209	373.027205652811	940
3	3209	373.027205652811	941
3	3209	373.027205652811	942
3	3209	373.027205652811	943
3	3209	373.027205652811	944
3	3231	373.987107740522	945
3	3231	373.987107740522	946
3	3239	375.987107740522	947
3	3239	375.987107740522	948
3	3244	377.487107740522	949
3	3244	377.487107740522	950
3	3247	377.527205652811	951
3	3247	377.527205652811	952
3	3247	377.527205652811	953
3	3247	377.527205652811	954
3	3247	377.527205652811	955
3	3263	377.987107740522	956
3	3263	377.987107740522	957
3	3275	379.987107740522	958
3	3275	379.987107740522	959
3	3282	381.987107740522	960
3	3282	381.987107740522	961
3	3283	381.987107740522	962
3	3283	381.987107740522	963
3	3288	382.027205652811	964
3	3288	382.027205652811	965
3	3288	382.027205652811	966
3	3288	382.027205652811	967
3	3288	382.027205652811	968
3	3312	383.987107740522	969
3	3312	383.987107740522	970
3	3320	385.987107740522	971
3	3320	385.987107740522	972
3	3325	386.487107740522	973
3	3325	386.487107740522	974
3	3328	386.527205652811	975
3	3328	386.527205652811	976
3	3328	386.527205652811	977
3	3328	386.527205652811	978
3	3328	386.527205652811	979
3	3350	387.987107740522	980
3	3350	387.987107740522	981
3	3356	389.987107740522	982
3	3356	389.987107740522	983
3	3363	390.987107740522	984
3	3363	390.987107740522	985
3	3366	391.027205652811	986
3	3366	391.027205652811	987
3	3366	391.027205652811	988
3	3366	391.027205652811	989
3	3366	391.027205652811	990
3	3388	391.987107740522	991
3	3388	391.987107740522	992
3	3393	393.987107740522	993
3	3393	393.987107740522	994
3	3401	395.487107740522	995
3	3401	395.487107740522	996
3	3404	395.527205652811	997
3	3404	395.527205652811	998
3	3404	395.527205652811	999
3	3404	395.527205652811	1000
3	3404	395.527205652811	1001
3	3420	395.987107740522	1002
3	3420	395.987107740522	1003
3	3431	397.987107740522	1004
3	3431	397.987107740522	1005
3	3437	399.987107740522	1006
3	3437	399.987107740522	1007
3	3438	399.987107740522	1008
3	3438	399.987107740522	1009
3	3445	400.027205652811	1010
3	3445	400.027205652811	1011
3	3445	400.027205652811	1012
3	3445	400.027205652811	1013
3	3445	400.027205652811	1014
3	3469	401.987107740522	1015
3	3469	401.987107740522	1016
3	3474	403.987107740522	1017
3	3474	403.987107740522	1018
3	3480	404.487107740522	1019
3	3480	404.487107740522	1020
3	3483	404.527205652811	1021
3	3483	404.527205652811	1022
3	3483	404.527205652811	1023
3	3483	404.527205652811	1024
3	3483	404.527205652811	1025
3	3507	405.987107740522	1026
3	3507	405.987107740522	1027
3	3512	407.987107740522	1028
3	3512	407.987107740522	1029
3	3517	408.987107740522	1030
3	3517	408.987107740522	1031
3	3521	409.027205652811	1032
3	3521	409.027205652811	1033
3	3521	409.027205652811	1034
3	3521	409.027205652811	1035
3	3521	409.027205652811	1036
3	3543	409.987107740522	1037
3	3543	409.987107740522	1038
3	3550	411.987107740522	1039
3	3550	411.987107740522	1040
3	3555	413.487107740522	1041
3	3555	413.487107740522	1042
3	3558	413.527205652811	1043
3	3558	413.527205652811	1044
3	3558	413.527205652811	1045
3	3558	413.527205652811	1046
3	3558	413.527205652811	1047
3	3574	413.987107740522	1048
3	3574	413.987107740522	1049
3	3588	415.987107740522	1050
3	3588	415.987107740522	1051
3	3593	417.987107740522	1052
3	3593	417.987107740522	1053
3	3594	417.987107740522	1054
3	3594	417.987107740522	1055
3	3599	418.027205652811	1056
3	3599	418.027205652811	1057
3	3599	418.027205652811	1058
3	3599	418.027205652811	1059
3	3599	418.027205652811	1060
3	3624	419.987107740522	1061
3	3624	419.987107740522	1062
3	3631	421.987107740522	1063
3	3631	421.987107740522	1064
3	3636	422.487107740522	1065
3	3636	422.487107740522	1066
3	3639	422.527205652811	1067
3	3639	422.527205652811	1068
3	3639	422.527205652811	1069
3	3639	422.527205652811	1070
3	3639	422.527205652811	1071
3	3661	423.987107740522	1072
3	3661	423.987107740522	1073
3	3669	425.987107740522	1074
3	3669	425.987107740522	1075
3	3674	426.987107740522	1076
3	3674	426.987107740522	1077
3	3677	427.027205652811	1078
3	3677	427.027205652811	1079
3	3677	427.027205652811	1080
3	3677	427.027205652811	1081
3	3677	427.027205652811	1082
3	3699	427.987107740522	1083
3	3699	427.987107740522	1084
3	3705	429.987107740522	1085
3	3705	429.987107740522	1086
3	3712	431.487107740522	1087
3	3712	431.487107740522	1088
3	3715	431.527205652811	1089
3	3715	431.527205652811	1090
3	3715	431.527205652811	1091
3	3715	431.527205652811	1092
3	3715	431.527205652811	1093
3	3731	431.987107740522	1094
3	3731	431.987107740522	1095
3	3742	433.987107740522	1096
3	3742	433.987107740522	1097
3	3750	435.987107740522	1098
3	3750	435.987107740522	1099
3	3751	435.987107740522	1100
3	3751	435.987107740522	1101
3	3756	436.027205652811	1102
3	3756	436.027205652811	1103
3	3756	436.027205652811	1104
3	3756	436.027205652811	1105
3	3756	436.027205652811	1106
3	3780	437.987107740522	1107
3	3780	437.987107740522	1108
3	3786	439.987107740522	1109
3	3786	439.987107740522	1110
3	3793	440.487107740522	1111
3	3793	440.487107740522	1112
3	3796	440.527205652811	1113
3	3796	440.527205652811	1114
3	3796	440.527205652811	1115
3	3796	440.527205652811	1116
3	3796	440.527205652811	1117
3	3818	441.987107740522	1118
3	3818	441.987107740522	1119
3	3823	443.987107740522	1120
3	3823	443.987107740522	1121
3	3829	444.987107740522	1122
3	3829	444.987107740522	1123
3	3834	445.027205652811	1124
3	3834	445.027205652811	1125
3	3834	445.027205652811	1126
3	3834	445.027205652811	1127
3	3834	445.027205652811	1128
3	3856	445.987107740522	1129
3	3856	445.987107740522	1130
3	3861	447.987107740522	1131
3	3861	447.987107740522	1132
3	3867	449.487107740522	1133
3	3867	449.487107740522	1134
3	3870	449.527205652811	1135
3	3870	449.527205652811	1136
3	3870	449.527205652811	1137
3	3870	449.527205652811	1138
3	3870	449.527205652811	1139
3	3886	449.987107740522	1140
3	3886	449.987107740522	1141
3	3899	451.987107740522	1142
3	3899	451.987107740522	1143
3	3904	453.987107740522	1144
3	3904	453.987107740522	1145
3	3905	453.987107740522	1146
3	3905	453.987107740522	1147
3	3911	454.027205652811	1148
3	3911	454.027205652811	1149
3	3911	454.027205652811	1150
3	3911	454.027205652811	1151
3	3911	454.027205652811	1152
3	3937	455.987107740522	1153
3	3937	455.987107740522	1154
3	3942	457.987107740522	1155
3	3942	457.987107740522	1156
3	3947	458.487107740522	1157
3	3947	458.487107740522	1158
3	3950	458.527205652811	1159
3	3950	458.527205652811	1160
3	3950	458.527205652811	1161
3	3950	458.527205652811	1162
3	3950	458.527205652811	1163
3	3973	459.987107740522	1164
3	3973	459.987107740522	1165
3	3980	461.987107740522	1166
3	3980	461.987107740522	1167
3	3985	462.987107740522	1168
3	3985	462.987107740522	1169
3	3988	463.027205652811	1170
3	3988	463.027205652811	1171
3	3988	463.027205652811	1172
3	3988	463.027205652811	1173
3	3988	463.027205652811	1174
3	4010	463.987107740522	1175
3	4010	463.987107740522	1176
3	4018	465.987107740522	1177
3	4018	465.987107740522	1178
3	4023	467.487107740522	1179
3	4023	467.487107740522	1180
3	4026	467.527205652811	1181
3	4026	467.527205652811	1182
3	4026	467.527205652811	1183
3	4026	467.527205652811	1184
3	4026	467.527205652811	1185
3	4042	467.987107740522	1186
3	4042	467.987107740522	1187
3	4054	469.987107740522	1188
3	4054	469.987107740522	1189
3	4061	471.987107740522	1190
3	4061	471.987107740522	1191
3	4062	471.987107740522	1192
3	4062	471.987107740522	1193
3	4067	472.027205652811	1194
3	4067	472.027205652811	1195
3	4067	472.027205652811	1196
3	4067	472.027205652811	1197
3	4067	472.027205652811	1198
3	4091	473.987107740522	1199
3	4091	473.987107740522	1200
3	4099	475.987107740522	1201
3	4099	475.987107740522	1202
3	4104	476.487107740522	1203
3	4104	476.487107740522	1204
3	4107	476.527205652811	1205
3	4107	476.527205652811	1206
3	4107	476.527205652811	1207
3	4107	476.527205652811	1208
3	4107	476.527205652811	1209
3	4129	477.987107740522	1210
3	4129	477.987107740522	1211
3	4135	479.987107740522	1212
3	4135	479.987107740522	1213
3	4142	480.987107740522	1214
3	4142	480.987107740522	1215
3	4145	481.027205652811	1216
3	4145	481.027205652811	1217
3	4145	481.027205652811	1218
3	4145	481.027205652811	1219
3	4145	481.027205652811	1220
3	4167	481.987107740522	1221
3	4167	481.987107740522	1222
3	4172	483.987107740522	1223
3	4172	483.987107740522	1224
3	4180	485.487107740522	1225
3	4180	485.487107740522	1226
3	4183	485.527205652811	1227
3	4183	485.527205652811	1228
3	4183	485.527205652811	1229
3	4183	485.527205652811	1230
3	4183	485.527205652811	1231
3	4199	485.987107740522	1232
3	4199	485.987107740522	1233
3	4210	487.987107740522	1234
3	4210	487.987107740522	1235
3	4216	489.987107740522	1236
3	4216	489.987107740522	1237
3	4217	489.987107740522	1238
3	4217	489.987107740522	1239
3	4224	490.027205652811	1240
3	4224	490.027205652811	1241
3	4224	490.027205652811	1242
3	4224	490.027205652811	1243
3	4224	490.027205652811	1244
3	4248	491.987107740522	1245
3	4248	491.987107740522	1246
3	4253	493.987107740522	1247
3	4253	493.987107740522	1248
3	4259	494.487107740522	1249
3	4259	494.487107740522	1250
3	4262	494.527205652811	1251
3	4262	494.527205652811	1252
3	4262	494.527205652811	1253
3	4262	494.527205652811	1254
3	4262	494.527205652811	1255
3	4286	495.987107740522	1256
3	4286	495.987107740522	1257
3	4291	497.987107740522	1258
3	4291	497.987107740522	1259
3	4296	498.987107740522	1260
3	4296	498.987107740522	1261
3	4300	499.027205652811	1262
3	4300	499.027205652811	1263
3	4300	499.027205652811	1264
3	4300	499.027205652811	1265
3	4300	499.027205652811	1266
3	4322	499.987107740522	1267
3	4322	499.987107740522	1268
3	4329	501.987107740522	1269
3	4329	501.987107740522	1270
3	4334	503.487107740522	1271
3	4334	503.487107740522	1272
3	4337	503.527205652811	1273
3	4337	503.527205652811	1274
3	4337	503.527205652811	1275
3	4337	503.527205652811	1276
3	4337	503.527205652811	1277
3	4353	503.987107740522	1278
3	4353	503.987107740522	1279
3	4367	505.987107740522	1280
3	4367	505.987107740522	1281
3	4372	507.987107740522	1282
3	4372	507.987107740522	1283
3	4373	507.987107740522	1284
3	4373	507.987107740522	1285
3	4378	508.027205652811	1286
3	4378	508.027205652811	1287
3	4378	508.027205652811	1288
3	4378	508.027205652811	1289
3	4378	508.027205652811	1290
3	4403	509.987107740522	1291
3	4403	509.987107740522	1292
3	4410	511.987107740522	1293
3	4410	511.987107740522	1294
3	4415	512.487107740522	1295
3	4415	512.487107740522	1296
3	4418	512.527205652811	1297
3	4418	512.527205652811	1298
3	4418	512.527205652811	1299
3	4418	512.527205652811	1300
3	4418	512.527205652811	1301
3	4440	513.987107740522	1302
3	4440	513.987107740522	1303
3	4448	515.987107740522	1304
3	4448	515.987107740522	1305
3	4453	516.987107740522	1306
3	4453	516.987107740522	1307
3	4456	517.027205652811	1308
3	4456	517.027205652811	1309
3	4456	517.027205652811	1310
3	4456	517.027205652811	1311
3	4456	517.027205652811	1312
3	4478	517.987107740522	1313
3	4478	517.987107740522	1314
3	4484	519.987107740522	1315
3	4484	519.987107740522	1316
3	4491	521.487107740522	1317
3	4491	521.487107740522	1318
3	4494	521.527205652811	1319
3	4494	521.527205652811	1320
3	4494	521.527205652811	1321
3	4494	521.527205652811	1322
3	4494	521.527205652811	1323
3	4510	521.987107740522	1324
3	4510	521.987107740522	1325
3	4521	523.987107740522	1326
3	4521	523.987107740522	1327
3	4529	525.987107740522	1328
3	4529	525.987107740522	1329
3	4530	525.987107740522	1330
3	4530	525.987107740522	1331
3	4535	526.027205652811	1332
3	4535	526.027205652811	1333
3	4535	526.027205652811	1334
3	4535	526.027205652811	1335
3	4535	526.027205652811	1336
3	4559	527.987107740522	1337
3	4559	527.987107740522	1338
3	4565	529.987107740522	1339
3	4565	529.987107740522	1340
3	4572	530.487107740522	1341
3	4572	530.487107740522	1342
3	4575	530.527205652811	1343
3	4575	530.527205652811	1344
3	4575	530.527205652811	1345
3	4575	530.527205652811	1346
3	4575	530.527205652811	1347
3	4597	531.987107740522	1348
3	4597	531.987107740522	1349
3	4602	533.987107740522	1350
3	4602	533.987107740522	1351
3	4608	534.987107740522	1352
3	4608	534.987107740522	1353
3	4613	535.027205652811	1354
3	4613	535.027205652811	1355
3	4613	535.027205652811	1356
3	4613	535.027205652811	1357
3	4613	535.027205652811	1358
3	4635	535.987107740522	1359
3	4635	535.987107740522	1360
3	4640	537.987107740522	1361
3	4640	537.987107740522	1362
3	4646	539.487107740522	1363
3	4646	539.487107740522	1364
3	4649	539.527205652811	1365
3	4649	539.527205652811	1366
3	4649	539.527205652811	1367
3	4649	539.527205652811	1368
3	4649	539.527205652811	1369
3	4665	539.987107740522	1370
3	4665	539.987107740522	1371
3	4678	541.987107740522	1372
3	4678	541.987107740522	1373
3	4683	543.987107740522	1374
3	4683	543.987107740522	1375
3	4684	543.987107740522	1376
3	4684	543.987107740522	1377
3	4690	544.027205652811	1378
3	4690	544.027205652811	1379
3	4690	544.027205652811	1380
3	4690	544.027205652811	1381
3	4690	544.027205652811	1382
3	4716	545.987107740522	1383
3	4716	545.987107740522	1384
3	4721	547.987107740522	1385
3	4721	547.987107740522	1386
3	4726	548.487107740522	1387
3	4726	548.487107740522	1388
3	4729	548.527205652811	1389
3	4729	548.527205652811	1390
3	4729	548.527205652811	1391
3	4729	548.527205652811	1392
3	4729	548.527205652811	1393
3	4752	549.987107740522	1394
3	4752	549.987107740522	1395
3	4759	551.987107740522	1396
3	4759	551.987107740522	1397
3	4764	552.987107740522	1398
3	4764	552.987107740522	1399
3	4768	553.098024863816	1400
3	4768	553.098024863816	1401
3	4768	553.098024863816	1402
3	4768	553.098024863816	1403
3	4768	553.098024863816	1404
3	4788	553.987107740522	1405
3	4788	553.987107740522	1406
3	4797	555.987107740522	1407
3	4797	555.987107740522	1408
3	4802	557.487107740522	1409
3	4802	557.487107740522	1410
3	4805	557.527205652811	1411
3	4805	557.527205652811	1412
3	4805	557.527205652811	1413
3	4805	557.527205652811	1414
3	4805	557.527205652811	1415
3	4821	557.987107740522	1416
3	4821	557.987107740522	1417
3	4833	559.987107740522	1418
3	4833	559.987107740522	1419
3	4840	561.987107740522	1420
3	4840	561.987107740522	1421
3	4841	561.987107740522	1422
3	4841	561.987107740522	1423
3	4846	562.027205652811	1424
3	4846	562.027205652811	1425
3	4846	562.027205652811	1426
3	4846	562.027205652811	1427
3	4846	562.027205652811	1428
3	4870	563.987107740522	1429
3	4870	563.987107740522	1430
3	4878	565.987107740522	1431
3	4878	565.987107740522	1432
3	4883	566.487107740522	1433
3	4883	566.487107740522	1434
3	4886	566.527205652811	1435
3	4886	566.527205652811	1436
3	4886	566.527205652811	1437
3	4886	566.527205652811	1438
3	4886	566.527205652811	1439
3	4908	567.987107740522	1440
3	4908	567.987107740522	1441
3	4914	569.987107740522	1442
3	4914	569.987107740522	1443
3	4921	570.987107740522	1444
3	4921	570.987107740522	1445
3	4924	571.027205652811	1446
3	4924	571.027205652811	1447
3	4924	571.027205652811	1448
3	4924	571.027205652811	1449
3	4924	571.027205652811	1450
3	4946	571.987107740522	1451
3	4946	571.987107740522	1452
3	4951	573.987107740522	1453
3	4951	573.987107740522	1454
3	5323	621.924410479566	1455
3	5324	621.924410479566	1456
3	5351	623.924410479566	1457
3	5358	625.924410479566	1458
3	5364	626.424410479566	1459
3	5389	627.924410479566	1460
3	5395	629.924410479566	1461
3	5401	630.924410479566	1462
3	5427	631.924410479566	1463
3	5432	633.924410479566	1464
3	5439	635.424410479566	1465
3	5458	635.924410479566	1466
3	5470	637.924410479566	1467
3	5478	639.924410479566	1468
3	5479	639.924410479566	1469
3	5508	641.924410479566	1470
3	5513	643.924410479566	1471
3	5519	644.424410479566	1472
3	5545	645.924410479566	1473
3	5551	647.924410479566	1474
3	5556	648.924410479566	1475
3	5582	649.924410479566	1476
3	5589	651.924410479566	1477
3	5594	653.424410479566	1478
3	5613	653.924410479566	1479
3	5626	655.924410479566	1480
3	5634	657.924410479566	1481
3	5635	657.924410479566	1482
3	5663	659.924410479566	1483
3	5670	661.924410479566	1484
3	5675	662.424410479566	1485
3	5700	663.924410479566	1486
3	5707	665.924410479566	1487
3	5713	666.924410479566	1488
3	5738	667.924410479566	1489
3	5744	669.924410479566	1490
3	5751	671.424410479566	1491
3	5770	671.924410479566	1492
3	5781	673.924410479566	1493
3	5790	675.924410479566	1494
3	5791	675.924410479566	1495
3	5819	677.924410479566	1496
3	5825	679.924410479566	1497
3	5831	680.424410479566	1498
3	5857	681.924410479566	1499
3	5862	683.924410479566	1500
3	5868	684.924410479566	1501
3	5894	685.924410479566	1502
3	5900	687.924410479566	1503
3	5906	689.424410479566	1504
3	5925	689.924410479566	1505
3	5938	691.924410479566	1506
3	5945	693.924410479566	1507
3	5946	693.924410479566	1508
3	5975	695.924410479566	1509
3	5981	697.924410479566	1510
3	5986	698.424410479566	1511
3	6012	699.924410479566	1512
3	6019	701.924410479566	1513
3	6024	702.924410479566	1514
3	6049	703.924410479566	1515
3	6056	705.924410479566	1516
3	6062	707.424410479566	1517
3	6081	707.924410479566	1518
3	6093	709.924410479566	1519
3	6102	711.924410479566	1520
3	6103	711.924410479566	1521
3	6130	713.924410479566	1522
3	6137	715.924410479566	1523
3	6143	716.424410479566	1524
3	6168	717.924410479566	1525
3	6174	719.924410479566	1526
3	6180	720.924410479566	1527
3	6206	721.924410479566	1528
3	6211	723.924410479566	1529
3	6218	725.424410479566	1530
3	6237	725.924410479566	1531
3	6249	727.924410479566	1532
3	6257	729.924410479566	1533
3	6258	729.924410479566	1534
3	6287	731.924410479566	1535
3	6292	733.924410479566	1536
3	6298	734.424410479566	1537
3	6324	735.924410479566	1538
3	6330	737.924410479566	1539
3	6335	738.924410479566	1540
3	6361	739.924410479566	1541
3	6368	741.924410479566	1542
3	6373	743.424410479566	1543
3	6392	743.924410479566	1544
3	6405	745.924410479566	1545
3	6413	747.924410479566	1546
3	6414	747.924410479566	1547
3	6442	749.924410479566	1548
3	6449	751.924410479566	1549
3	6454	752.424410479566	1550
3	6479	753.924410479566	1551
3	6486	755.924410479566	1552
3	6492	756.924410479566	1553
3	6517	757.924410479566	1554
3	6523	759.924410479566	1555
3	6530	761.424410479566	1556
3	6549	761.924410479566	1557
3	6560	763.924410479566	1558
3	6569	765.924410479566	1559
3	6570	765.924410479566	1560
3	6598	767.924410479566	1561
3	6604	769.924410479566	1562
3	6610	770.424410479566	1563
3	6636	771.924410479566	1564
3	6642	773.924410479566	1565
3	6648	774.924410479566	1566
3	6673	775.924410479566	1567
3	6680	777.924410479566	1568
3	6687	779.424410479566	1569
3	6705	779.924410479566	1570
3	6718	781.924410479566	1571
3	6726	783.924410479566	1572
3	6727	783.924410479566	1573
3	6755	785.924410479566	1574
3	6762	787.924410479566	1575
3	6767	788.424410479566	1576
3	6793	789.924410479566	1577
3	6799	791.924410479566	1578
3	6804	792.924410479566	1579
3	6829	793.924410479566	1580
3	6836	795.924410479566	1581
3	6842	797.424410479566	1582
3	6861	797.924410479566	1583
3	6874	799.924410479566	1584
3	6882	801.924410479566	1585
3	6883	801.924410479566	1586
3	6910	803.924410479566	1587
3	6917	805.924410479566	1588
3	6923	806.424410479566	1589
3	6948	807.924410479566	1590
3	6955	809.924410479566	1591
3	6960	810.924410479566	1592
3	6986	811.924410479566	1593
3	6991	813.924410479566	1594
3	6998	815.424410479566	1595
3	7017	815.924410479566	1596
3	7029	817.924410479566	1597
3	7038	819.924410479566	1598
3	7039	819.924410479566	1599
3	7067	821.924410479566	1600
3	7072	823.924410479566	1601
3	7079	824.424410479566	1602
3	7104	825.924410479566	1603
3	7110	827.924410479566	1604
3	7115	828.924410479566	1605
3	7142	829.924410479566	1606
3	7148	831.924410479566	1607
3	7153	833.424410479566	1608
3	7172	833.924410479566	1609
3	7185	835.924410479566	1610
3	7193	837.924410479566	1611
3	7194	837.924410479566	1612
3	7223	839.924410479566	1613
3	7229	841.924410479566	1614
3	7234	842.424410479566	1615
3	7259	843.924410479566	1616
3	7266	845.924410479566	1617
3	7272	846.924410479566	1618
3	7297	847.924410479566	1619
3	7304	849.924410479566	1620
3	7310	851.424410479566	1621
3	7329	851.924410479566	1622
3	7340	853.924410479566	1623
3	7349	855.924410479566	1624
3	7350	855.924410479566	1625
3	7378	857.924410479566	1626
3	7385	859.924410479566	1627
3	7390	860.424410479566	1628
3	7416	861.924410479566	1629
3	7421	863.924410479566	1630
3	7428	864.924410479566	1631
3	7453	865.924410479566	1632
3	7459	867.924410479566	1633
3	7475	871.871420307799	1634
3	7475	871.871420307799	1635
3	7478	871.911518220088	1636
3	7478	871.911518220088	1637
3	7492	873.911518220088	1638
3	7492	873.911518220088	1639
3	7503	875.911518220088	1640
3	7503	875.911518220088	1641
3	7513	876.411518220088	1642
3	7513	876.411518220088	1643
3	7516	876.451616132377	1644
3	7530	877.911518220088	1645
3	7530	877.911518220088	1646
3	7544	879.911518220088	1647
3	7544	879.911518220088	1648
3	7549	880.911518220088	1649
3	7549	880.911518220088	1650
3	7552	880.951616132377	1651
3	7552	880.951616132377	1652
3	7552	880.951616132377	1653
3	7552	880.951616132377	1654
3	7552	880.951616132377	1655
3	7576	881.911518220088	1656
3	7576	881.911518220088	1657
3	7581	883.911518220088	1658
3	7581	883.911518220088	1659
3	7587	885.411518220088	1660
3	7587	885.411518220088	1661
3	7590	885.451616132377	1662
3	7590	885.451616132377	1663
3	7590	885.451616132377	1664
3	7590	885.451616132377	1665
3	7590	885.451616132377	1666
3	7606	885.911518220088	1667
3	7606	885.911518220088	1668
3	7619	887.911518220088	1669
3	7619	887.911518220088	1670
3	7625	889.911518220088	1671
3	7625	889.911518220088	1672
3	7626	889.911518220088	1673
3	7626	889.911518220088	1674
3	7631	889.951616132377	1675
3	7631	889.951616132377	1676
3	7631	889.951616132377	1677
3	7631	889.951616132377	1678
3	7631	889.951616132377	1679
3	7657	891.911518220088	1680
3	7657	891.911518220088	1681
3	7662	893.911518220088	1682
3	7662	893.911518220088	1683
3	7668	894.411518220088	1684
3	7668	894.411518220088	1685
3	7671	894.451616132377	1686
3	7671	894.451616132377	1687
3	7671	894.451616132377	1688
3	7671	894.451616132377	1689
3	7671	894.451616132377	1690
3	7693	895.911518220088	1691
3	7693	895.911518220088	1692
3	7700	897.911518220088	1693
3	7700	897.911518220088	1694
3	7705	898.911518220088	1695
3	7705	898.911518220088	1696
3	7708	898.951616132377	1697
3	7708	898.951616132377	1698
3	7708	898.951616132377	1699
3	7708	898.951616132377	1700
3	7708	898.951616132377	1701
3	7731	899.911518220088	1702
3	7731	899.911518220088	1703
3	7738	901.911518220088	1704
3	7738	901.911518220088	1705
3	7743	903.411518220088	1706
3	7743	903.411518220088	1707
3	7746	903.451616132377	1708
3	7746	903.451616132377	1709
3	7746	903.451616132377	1710
3	7746	903.451616132377	1711
3	7746	903.451616132377	1712
3	7762	903.911518220088	1713
3	7762	903.911518220088	1714
3	7775	905.911518220088	1715
3	7775	905.911518220088	1716
3	7782	907.911518220088	1717
3	7782	907.911518220088	1718
3	7783	907.911518220088	1719
3	7783	907.911518220088	1720
3	7788	907.951616132377	1721
3	7788	907.951616132377	1722
3	7788	907.951616132377	1723
3	7788	907.951616132377	1724
3	7788	907.951616132377	1725
3	7812	909.911518220088	1726
3	7812	909.911518220088	1727
3	7820	911.911518220088	1728
3	7820	911.911518220088	1729
3	7825	912.411518220088	1730
3	7825	912.411518220088	1731
3	7828	912.451616132377	1732
3	7828	912.451616132377	1733
3	7828	912.451616132377	1734
3	7828	912.451616132377	1735
3	7828	912.451616132377	1736
3	7850	913.911518220088	1737
3	7850	913.911518220088	1738
3	7855	915.911518220088	1739
3	7855	915.911518220088	1740
3	7863	916.911518220088	1741
3	7863	916.911518220088	1742
3	7866	916.951616132377	1743
3	7866	916.951616132377	1744
3	7866	916.951616132377	1745
3	7866	916.951616132377	1746
3	7866	916.951616132377	1747
3	7888	917.911518220088	1748
3	7888	917.911518220088	1749
3	7893	919.911518220088	1750
3	7893	919.911518220088	1751
3	7901	921.411518220088	1752
3	7901	921.411518220088	1753
3	7904	921.451616132377	1754
3	7904	921.451616132377	1755
3	7904	921.451616132377	1756
3	7904	921.451616132377	1757
3	7904	921.451616132377	1758
3	7920	921.911518220088	1759
3	7920	921.911518220088	1760
3	7931	923.911518220088	1761
3	7931	923.911518220088	1762
3	7936	925.911518220088	1763
3	7936	925.911518220088	1764
3	7937	925.911518220088	1765
3	7937	925.911518220088	1766
3	7942	925.951616132377	1767
3	7942	925.951616132377	1768
3	7942	925.951616132377	1769
3	7942	925.951616132377	1770
3	7942	925.951616132377	1771
3	7969	927.911518220088	1772
3	7969	927.911518220088	1773
3	7974	929.911518220088	1774
3	7974	929.911518220088	1775
3	7979	930.411518220088	1776
3	7979	930.411518220088	1777
3	7982	930.451616132377	1778
3	7982	930.451616132377	1779
3	7982	930.451616132377	1780
3	7982	930.451616132377	1781
3	7982	930.451616132377	1782
3	8007	931.911518220088	1783
3	8007	931.911518220088	1784
3	8012	933.911518220088	1785
3	8012	933.911518220088	1786
3	8017	934.911518220088	1787
3	8017	934.911518220088	1788
3	8020	934.951616132377	1789
3	8020	934.951616132377	1790
3	8020	934.951616132377	1791
3	8020	934.951616132377	1792
3	8020	934.951616132377	1793
3	8042	935.911518220088	1794
3	8042	935.911518220088	1795
3	8050	937.911518220088	1796
3	8050	937.911518220088	1797
3	8055	939.411518220088	1798
3	8055	939.411518220088	1799
3	8058	939.451616132377	1800
3	8058	939.451616132377	1801
3	8058	939.451616132377	1802
3	8058	939.451616132377	1803
3	8058	939.451616132377	1804
3	8074	939.911518220088	1805
3	8074	939.911518220088	1806
3	8088	941.911518220088	1807
3	8088	941.911518220088	1808
3	8093	943.911518220088	1809
3	8093	943.911518220088	1810
3	8094	943.911518220088	1811
3	8094	943.911518220088	1812
3	8099	943.951616132377	1813
3	8099	943.951616132377	1814
3	8099	943.951616132377	1815
3	8099	943.951616132377	1816
3	8099	943.951616132377	1817
3	8123	945.911518220088	1818
3	8123	945.911518220088	1819
3	8131	947.911518220088	1820
3	8131	947.911518220088	1821
3	8136	948.411518220088	1822
3	8136	948.411518220088	1823
3	8139	948.451616132377	1824
3	8139	948.451616132377	1825
3	8139	948.451616132377	1826
3	8139	948.451616132377	1827
3	8139	948.451616132377	1828
3	8161	949.911518220088	1829
3	8161	949.911518220088	1830
3	8169	951.911518220088	1831
3	8169	951.911518220088	1832
3	8174	952.911518220088	1833
3	8174	952.911518220088	1834
3	8177	952.951616132377	1835
3	8177	952.951616132377	1836
3	8177	952.951616132377	1837
3	8177	952.951616132377	1838
3	8177	952.951616132377	1839
3	8199	953.911518220088	1840
3	8199	953.911518220088	1841
3	8204	955.911518220088	1842
3	8204	955.911518220088	1843
3	8212	957.411518220088	1844
3	8212	957.411518220088	1845
3	8215	957.451616132377	1846
3	8215	957.451616132377	1847
3	8215	957.451616132377	1848
3	8215	957.451616132377	1849
3	8215	957.451616132377	1850
3	8231	957.911518220088	1851
3	8231	957.911518220088	1852
3	8242	959.911518220088	1853
3	8242	959.911518220088	1854
3	8250	961.911518220088	1855
3	8250	961.911518220088	1856
3	8251	961.911518220088	1857
3	8251	961.911518220088	1858
3	8256	961.951616132377	1859
3	8256	961.951616132377	1860
3	8256	961.951616132377	1861
3	8256	961.951616132377	1862
3	8256	961.951616132377	1863
3	8280	963.911518220088	1864
3	8280	963.911518220088	1865
3	8285	965.911518220088	1866
3	8285	965.911518220088	1867
3	8293	966.411518220088	1868
3	8293	966.411518220088	1869
3	8296	966.451616132377	1870
3	8296	966.451616132377	1871
3	8296	966.451616132377	1872
3	8296	966.451616132377	1873
3	8296	966.451616132377	1874
3	8318	967.911518220088	1875
3	8318	967.911518220088	1876
3	8323	969.911518220088	1877
3	8323	969.911518220088	1878
3	8328	970.911518220088	1879
3	8328	970.911518220088	1880
3	8331	970.951616132377	1881
3	8331	970.951616132377	1882
3	8331	970.951616132377	1883
3	8331	970.951616132377	1884
3	8331	970.951616132377	1885
3	8356	971.911518220088	1886
3	8356	971.911518220088	1887
3	8362	973.911518220088	1888
3	8362	973.911518220088	1889
3	8368	975.411518220088	1890
3	8368	975.411518220088	1891
3	8371	975.522435343382	1892
3	8371	975.522435343382	1893
3	8371	975.522435343382	1894
3	8371	975.522435343382	1895
3	8371	975.522435343382	1896
3	8381	975.911518220088	1897
3	8381	975.911518220088	1898
3	8400	977.911518220088	1899
3	8400	977.911518220088	1900
3	8406	979.911518220088	1901
3	8406	979.911518220088	1902
3	8407	979.911518220088	1903
3	8407	979.911518220088	1904
3	8413	980.022435343382	1905
3	8413	980.022435343382	1906
3	8413	980.022435343382	1907
3	8413	980.022435343382	1908
3	8413	980.022435343382	1909
3	8438	981.911518220088	1910
3	8438	981.911518220088	1911
3	8444	983.911518220088	1912
3	8444	983.911518220088	1913
3	8449	984.411518220088	1914
3	8449	984.411518220088	1915
3	8452	984.522435343382	1916
3	8452	984.522435343382	1917
3	8452	984.522435343382	1918
3	8452	984.522435343382	1919
3	8452	984.522435343382	1920
3	8474	985.911518220088	1921
3	8474	985.911518220088	1922
3	8482	987.911518220088	1923
3	8482	987.911518220088	1924
3	8487	988.911518220088	1925
3	8487	988.911518220088	1926
3	8491	989.022435343382	1927
3	8491	989.022435343382	1928
3	8491	989.022435343382	1929
3	8491	989.022435343382	1930
3	8491	989.022435343382	1931
3	8511	989.911518220088	1932
3	8511	989.911518220088	1933
3	8520	991.911518220088	1934
3	8520	991.911518220088	1935
3	8525	993.411518220088	1936
3	8525	993.411518220088	1937
3	8528	993.451616132377	1938
3	8528	993.451616132377	1939
3	8528	993.451616132377	1940
3	8528	993.451616132377	1941
3	8528	993.451616132377	1942
3	8544	993.911518220088	1943
3	8544	993.911518220088	1944
3	8555	995.911518220088	1945
3	8555	995.911518220088	1946
3	8563	997.911518220088	1947
3	8563	997.911518220088	1948
3	8564	997.911518220088	1949
3	8564	997.911518220088	1950
3	8569	997.951616132377	1951
3	8569	997.951616132377	1952
3	8569	997.951616132377	1953
3	8569	997.951616132377	1954
3	8569	997.951616132377	1955
3	8593	999.911518220088	1956
3	8593	999.911518220088	1957
3	8600	1001.911518220088	1958
3	8600	1001.911518220088	1959
3	8606	1002.411518220088	1960
3	8606	1002.411518220088	1961
3	8609	1002.451616132377	1962
3	8609	1002.451616132377	1963
3	8609	1002.451616132377	1964
3	8609	1002.451616132377	1965
3	8609	1002.451616132377	1966
3	8631	1003.911518220088	1967
3	8631	1003.911518220088	1968
3	8636	1005.911518220088	1969
3	8636	1005.911518220088	1970
3	8643	1006.911518220088	1971
3	8643	1006.911518220088	1972
3	8646	1006.951616132377	1973
3	8646	1006.951616132377	1974
3	8646	1006.951616132377	1975
3	8646	1006.951616132377	1976
3	8646	1006.951616132377	1977
3	8669	1007.911518220088	1978
3	8669	1007.911518220088	1979
3	8674	1009.911518220088	1980
3	8674	1009.911518220088	1981
3	8681	1011.411518220088	1982
3	8681	1011.411518220088	1983
3	8684	1011.451616132377	1984
3	8684	1011.451616132377	1985
3	8684	1011.451616132377	1986
3	8684	1011.451616132377	1987
3	8684	1011.451616132377	1988
3	8700	1011.911518220088	1989
3	8700	1011.911518220088	1990
3	8712	1013.911518220088	1991
3	8712	1013.911518220088	1992
3	8717	1015.911518220088	1993
3	8717	1015.911518220088	1994
3	8718	1015.911518220088	1995
3	8718	1015.911518220088	1996
3	8723	1015.951616132377	1997
3	8723	1015.951616132377	1998
3	8723	1015.951616132377	1999
3	8723	1015.951616132377	2000
3	8723	1015.951616132377	2001
3	8750	1017.911518220088	2002
3	8750	1017.911518220088	2003
3	8755	1019.911518220088	2004
3	8755	1019.911518220088	2005
3	8760	1020.411518220088	2006
3	8760	1020.411518220088	2007
3	8763	1020.451616132377	2008
3	8763	1020.451616132377	2009
3	8763	1020.451616132377	2010
3	8763	1020.451616132377	2011
3	8763	1020.451616132377	2012
3	8787	1021.911518220088	2013
3	8787	1021.911518220088	2014
3	8793	1023.911518220088	2015
3	8793	1023.911518220088	2016
3	8798	1024.911518220088	2017
3	8798	1024.911518220088	2018
3	8801	1024.951616132377	2019
3	8801	1024.951616132377	2020
3	8801	1024.951616132377	2021
3	8801	1024.951616132377	2022
3	8801	1024.951616132377	2023
3	8823	1025.911518220088	2024
3	8823	1025.911518220088	2025
3	8831	1027.911518220088	2026
3	8831	1027.911518220088	2027
3	8836	1029.411518220088	2028
3	8836	1029.411518220088	2029
3	8839	1029.451616132377	2030
3	8839	1029.451616132377	2031
3	8839	1029.451616132377	2032
3	8839	1029.451616132377	2033
3	8839	1029.451616132377	2034
3	8855	1029.911518220088	2035
3	8855	1029.911518220088	2036
3	8868	1031.911518220088	2037
3	8868	1031.911518220088	2038
3	8874	1033.911518220088	2039
3	8874	1033.911518220088	2040
3	8875	1033.911518220088	2041
3	8875	1033.911518220088	2042
3	8880	1033.951616132377	2043
3	8880	1033.951616132377	2044
3	8880	1033.951616132377	2045
3	8880	1033.951616132377	2046
3	8880	1033.951616132377	2047
3	8904	1035.911518220088	2048
3	8904	1035.911518220088	2049
3	8912	1037.911518220088	2050
3	8912	1037.911518220088	2051
3	8917	1038.411518220088	2052
3	8917	1038.411518220088	2053
3	8920	1038.451616132377	2054
3	8920	1038.451616132377	2055
3	8920	1038.451616132377	2056
3	8920	1038.451616132377	2057
3	8920	1038.451616132377	2058
3	8942	1039.911518220088	2059
3	8942	1039.911518220088	2060
3	8999	1049.947009828233	2061
3	8999	1049.947009828233	2062
3	9015	1051.72757669345	2063
3	9020	1051.848820959132	2064
3	9036	1053.848820959132	2065
3	9043	1055.848820959132	2066
3	9055	1056.348820959132	2067
3	9072	1057.848820959132	2068
3	9079	1059.848820959132	2069
3	9088	1060.848820959132	2070
3	9117	1061.848820959132	2071
3	9127	1063.848820959132	2072
3	9132	1065.348820959132	2073
3	9151	1065.848820959132	2074
3	9165	1067.848820959132	2075
3	9172	1069.848820959132	2076
3	9173	1069.848820959132	2077
3	9202	1071.848820959132	2078
3	9208	1073.848820959132	2079
3	9213	1074.348820959132	2080
3	9238	1075.848820959132	2081
3	9246	1077.848820959132	2082
3	9251	1078.848820959132	2083
3	9276	1079.848820959132	2084
3	9283	1081.848820959132	2085
3	9289	1083.348820959132	2086
3	9308	1083.848820959132	2087
3	9319	1085.848820959132	2088
3	9329	1087.848820959132	2089
3	9330	1087.848820959132	2090
3	9357	1089.848820959132	2091
3	9364	1091.848820959132	2092
3	9370	1092.348820959132	2093
3	9395	1093.848820959132	2094
3	9400	1095.848820959132	2095
3	9407	1096.848820959132	2096
3	9433	1097.848820959132	2097
3	9438	1099.848820959132	2098
3	9445	1101.348820959132	2099
3	9464	1101.848820959132	2100
3	9476	1103.848820959132	2101
3	9483	1105.848820959132	2102
3	9484	1105.848820959132	2103
3	9514	1107.848820959132	2104
3	9519	1109.848820959132	2105
3	9524	1110.348820959132	2106
3	9551	1111.848820959132	2107
3	9557	1113.848820959132	2108
3	9562	1114.848820959132	2109
3	9587	1115.848820959132	2110
3	9595	1117.848820959132	2111
3	9600	1119.348820959132	2112
3	9619	1119.848820959132	2113
3	9632	1121.848820959132	2114
3	9640	1123.848820959132	2115
3	9641	1123.848820959132	2116
3	9668	1125.848820959132	2117
3	9676	1127.848820959132	2118
3	9681	1128.348820959132	2119
3	9706	1129.848820959132	2120
3	9713	1131.848820959132	2121
3	9719	1132.848820959132	2122
3	9744	1133.848820959132	2123
3	9749	1135.848820959132	2124
3	9757	1137.348820959132	2125
3	9776	1137.848820959132	2126
3	9787	1139.848820959132	2127
3	9796	1141.848820959132	2128
3	9797	1141.848820959132	2129
3	9825	1143.848820959132	2130
3	9830	1145.848820959132	2131
3	9837	1146.348820959132	2132
3	9863	1147.848820959132	2133
3	9868	1149.848820959132	2134
3	9873	1150.848820959132	2135
3	9900	1151.848820959132	2136
3	9906	1153.848820959132	2137
3	9911	1155.348820959132	2138
3	9930	1155.848820959132	2139
3	9944	1157.848820959132	2140
3	9951	1159.848820959132	2141
3	9952	1159.848820959132	2142
3	9981	1161.848820959132	2143
3	9987	1163.848820959132	2144
3	9992	1164.348820959132	2145
3	10017	1165.848820959132	2146
3	10025	1167.848820959132	2147
3	10030	1168.848820959132	2148
3	10055	1169.848820959132	2149
3	10062	1171.848820959132	2150
3	10068	1173.348820959132	2151
3	10087	1173.848820959132	2152
3	10098	1175.848820959132	2153
3	10108	1177.848820959132	2154
3	10109	1177.848820959132	2155
3	10136	1179.848820959132	2156
3	10143	1181.848820959132	2157
3	10149	1182.348820959132	2158
3	10174	1183.848820959132	2159
3	10179	1185.848820959132	2160
3	10186	1186.848820959132	2161
3	10212	1187.848820959132	2162
3	10217	1189.848820959132	2163
3	10224	1191.348820959132	2164
3	10243	1191.848820959132	2165
3	10255	1193.848820959132	2166
3	10262	1195.848820959132	2167
3	10263	1195.848820959132	2168
3	10293	1197.848820959132	2169
3	10298	1199.848820959132	2170
3	10303	1200.348820959132	2171
3	10330	1201.848820959132	2172
3	10336	1203.848820959132	2173
3	10341	1204.848820959132	2174
3	10366	1205.848820959132	2175
3	10374	1209.795830787365	2176
3	10374	1209.795830787365	2177
3	10377	1209.835928699654	2178
3	10377	1209.835928699654	2179
3	10394	1211.835928699654	2180
3	10394	1211.835928699654	2181
3	10408	1213.835928699654	2182
3	10408	1213.835928699654	2183
3	10415	1214.335928699654	2184
3	10415	1214.335928699654	2185
3	10419	1214.376026611943	2186
3	10419	1214.376026611943	2187
3	10419	1214.376026611943	2188
3	10437	1215.835928699654	2189
3	10437	1215.835928699654	2190
3	10447	1217.835928699654	2191
3	10447	1217.835928699654	2192
3	10453	1218.835928699654	2193
3	10453	1218.835928699654	2194
3	10456	1218.876026611943	2195
3	10456	1218.876026611943	2196
3	10456	1218.876026611943	2197
3	10456	1218.876026611943	2198
3	10456	1218.876026611943	2199
3	10478	1219.835928699654	2200
3	10478	1219.835928699654	2201
3	10484	1221.835928699654	2202
3	10484	1221.835928699654	2203
3	10491	1223.335928699654	2204
3	10491	1223.335928699654	2205
3	10494	1223.376026611943	2206
3	10494	1223.376026611943	2207
3	10494	1223.376026611943	2208
3	10494	1223.376026611943	2209
3	10494	1223.376026611943	2210
3	10510	1223.835928699654	2211
3	10510	1223.835928699654	2212
3	10521	1225.835928699654	2213
3	10521	1225.835928699654	2214
3	10528	1227.835928699654	2215
3	10528	1227.835928699654	2216
3	10529	1227.835928699654	2217
3	10529	1227.835928699654	2218
3	10534	1227.876026611943	2219
3	10534	1227.876026611943	2220
3	10534	1227.876026611943	2221
3	10534	1227.876026611943	2222
3	10534	1227.876026611943	2223
3	10559	1229.835928699654	2224
3	10559	1229.835928699654	2225
3	10565	1231.835928699654	2226
3	10565	1231.835928699654	2227
3	10571	1232.335928699654	2228
3	10571	1232.335928699654	2229
3	10574	1232.376026611943	2230
3	10574	1232.376026611943	2231
3	10574	1232.376026611943	2232
3	10574	1232.376026611943	2233
3	10574	1232.376026611943	2234
3	10597	1233.835928699654	2235
3	10597	1233.835928699654	2236
3	10602	1235.835928699654	2237
3	10602	1235.835928699654	2238
3	10608	1236.835928699654	2239
3	10608	1236.835928699654	2240
3	10611	1236.876026611943	2241
3	10611	1236.876026611943	2242
3	10611	1236.876026611943	2243
3	10611	1236.876026611943	2244
3	10611	1236.876026611943	2245
3	10634	1237.835928699654	2246
3	10634	1237.835928699654	2247
3	10640	1239.835928699654	2248
3	10640	1239.835928699654	2249
3	10646	1241.335928699654	2250
3	10646	1241.335928699654	2251
3	10649	1241.376026611943	2252
3	10649	1241.376026611943	2253
3	10649	1241.376026611943	2254
3	10649	1241.376026611943	2255
3	10649	1241.376026611943	2256
3	10665	1241.835928699654	2257
3	10665	1241.835928699654	2258
3	10678	1243.835928699654	2259
3	10678	1243.835928699654	2260
3	10683	1245.835928699654	2261
3	10683	1245.835928699654	2262
3	10684	1245.835928699654	2263
3	10684	1245.835928699654	2264
3	10689	1245.876026611943	2265
3	10689	1245.876026611943	2266
3	10689	1245.876026611943	2267
3	10689	1245.876026611943	2268
3	10689	1245.876026611943	2269
3	10715	1247.835928699654	2270
3	10715	1247.835928699654	2271
3	10721	1249.835928699654	2272
3	10721	1249.835928699654	2273
3	10726	1250.335928699654	2274
3	10726	1250.335928699654	2275
3	10729	1250.376026611943	2276
3	10729	1250.376026611943	2277
3	10729	1250.376026611943	2278
3	10729	1250.376026611943	2279
3	10729	1250.376026611943	2280
3	10752	1251.835928699654	2281
3	10752	1251.835928699654	2282
3	10759	1253.835928699654	2283
3	10759	1253.835928699654	2284
3	10764	1254.835928699654	2285
3	10764	1254.835928699654	2286
3	10767	1254.876026611943	2287
3	10767	1254.876026611943	2288
3	10767	1254.876026611943	2289
3	10767	1254.876026611943	2290
3	10767	1254.876026611943	2291
3	10789	1255.835928699654	2292
3	10789	1255.835928699654	2293
3	10796	1257.835928699654	2294
3	10796	1257.835928699654	2295
3	10802	1259.335928699654	2296
3	10802	1259.335928699654	2297
3	10805	1259.376026611943	2298
3	10805	1259.376026611943	2299
3	10805	1259.376026611943	2300
3	10805	1259.376026611943	2301
3	10805	1259.376026611943	2302
3	10821	1259.835928699654	2303
3	10821	1259.835928699654	2304
3	10833	1261.835928699654	2305
3	10833	1261.835928699654	2306
3	10840	1263.835928699654	2307
3	10840	1263.835928699654	2308
3	10841	1263.835928699654	2309
3	10841	1263.835928699654	2310
3	10846	1263.876026611943	2311
3	10846	1263.876026611943	2312
3	10846	1263.876026611943	2313
3	10846	1263.876026611943	2314
3	10846	1263.876026611943	2315
3	10870	1265.835928699654	2316
3	10870	1265.835928699654	2317
3	10877	1267.835928699654	2318
3	10877	1267.835928699654	2319
3	10883	1268.335928699654	2320
3	10883	1268.335928699654	2321
3	10886	1268.376026611943	2322
3	10886	1268.376026611943	2323
3	10886	1268.376026611943	2324
3	10886	1268.376026611943	2325
3	10886	1268.376026611943	2326
3	10908	1269.835928699654	2327
3	10908	1269.835928699654	2328
3	10914	1271.835928699654	2329
3	10914	1271.835928699654	2330
3	10920	1272.835928699654	2331
3	10920	1272.835928699654	2332
3	10923	1272.876026611943	2333
3	10923	1272.876026611943	2334
3	10923	1272.876026611943	2335
3	10923	1272.876026611943	2336
3	10923	1272.876026611943	2337
3	10946	1273.835928699654	2338
3	10946	1273.835928699654	2339
3	10951	1275.835928699654	2340
3	10951	1275.835928699654	2341
3	10958	1277.335928699654	2342
3	10958	1277.335928699654	2343
3	10961	1277.376026611943	2344
3	10961	1277.376026611943	2345
3	10961	1277.376026611943	2346
3	10961	1277.376026611943	2347
3	10961	1277.376026611943	2348
3	10977	1277.835928699654	2349
3	10977	1277.835928699654	2350
3	10989	1279.835928699654	2351
3	10989	1279.835928699654	2352
3	10995	1281.835928699654	2353
3	10995	1281.835928699654	2354
3	10996	1281.835928699654	2355
3	10996	1281.835928699654	2356
3	11001	1281.876026611943	2357
3	11001	1281.876026611943	2358
3	11001	1281.876026611943	2359
3	11001	1281.876026611943	2360
3	11001	1281.876026611943	2361
3	11027	1283.835928699654	2362
3	11027	1283.835928699654	2363
3	11032	1285.835928699654	2364
3	11032	1285.835928699654	2365
3	11038	1286.335928699654	2366
3	11038	1286.335928699654	2367
3	11041	1286.376026611943	2368
3	11041	1286.376026611943	2369
3	11041	1286.376026611943	2370
3	11041	1286.376026611943	2371
3	11041	1286.376026611943	2372
3	11064	1287.835928699654	2373
3	11064	1287.835928699654	2374
3	11070	1289.835928699654	2375
3	11070	1289.835928699654	2376
3	11075	1290.835928699654	2377
3	11075	1290.835928699654	2378
3	11078	1290.876026611943	2379
3	11078	1290.876026611943	2380
3	11078	1290.876026611943	2381
3	11078	1290.876026611943	2382
3	11078	1290.876026611943	2383
3	11101	1291.835928699654	2384
3	11101	1291.835928699654	2385
3	11108	1293.835928699654	2386
3	11108	1293.835928699654	2387
3	11113	1295.335928699654	2388
3	11113	1295.335928699654	2389
3	11116	1295.376026611943	2390
3	11116	1295.376026611943	2391
3	11116	1295.376026611943	2392
3	11116	1295.376026611943	2393
3	11116	1295.376026611943	2394
3	11132	1295.835928699654	2395
3	11132	1295.835928699654	2396
3	11145	1297.835928699654	2397
3	11145	1297.835928699654	2398
3	11151	1299.835928699654	2399
3	11151	1299.835928699654	2400
3	11152	1299.835928699654	2401
3	11152	1299.835928699654	2402
3	11157	1299.876026611943	2403
3	11157	1299.876026611943	2404
3	11157	1299.876026611943	2405
3	11157	1299.876026611943	2406
3	11157	1299.876026611943	2407
3	11182	1301.835928699654	2408
3	11182	1301.835928699654	2409
3	11189	1303.835928699654	2410
3	11189	1303.835928699654	2411
3	11194	1304.335928699654	2412
3	11194	1304.335928699654	2413
3	11197	1304.376026611943	2414
3	11197	1304.376026611943	2415
3	11197	1304.376026611943	2416
3	11197	1304.376026611943	2417
3	11197	1304.376026611943	2418
3	11219	1305.835928699654	2419
3	11219	1305.835928699654	2420
3	11226	1307.835928699654	2421
3	11226	1307.835928699654	2422
3	11232	1308.835928699654	2423
3	11232	1308.835928699654	2424
3	11235	1308.876026611943	2425
3	11235	1308.876026611943	2426
3	11235	1308.876026611943	2427
3	11235	1308.876026611943	2428
3	11235	1308.876026611943	2429
3	11257	1309.835928699654	2430
3	11257	1309.835928699654	2431
3	11263	1311.835928699654	2432
3	11263	1311.835928699654	2433
3	11270	1313.335928699654	2434
3	11270	1313.335928699654	2435
3	11273	1313.376026611943	2436
3	11273	1313.376026611943	2437
3	11273	1313.376026611943	2438
3	11273	1313.376026611943	2439
3	11273	1313.376026611943	2440
3	11289	1313.835928699654	2441
3	11289	1313.835928699654	2442
3	11300	1315.835928699654	2443
3	11300	1315.835928699654	2444
3	11307	1317.835928699654	2445
3	11307	1317.835928699654	2446
3	11308	1317.835928699654	2447
3	11308	1317.835928699654	2448
3	11313	1317.876026611943	2449
3	11313	1317.876026611943	2450
3	11313	1317.876026611943	2451
3	11313	1317.876026611943	2452
3	11313	1317.876026611943	2453
3	11338	1319.835928699654	2454
3	11338	1319.835928699654	2455
3	11344	1321.835928699654	2456
3	11344	1321.835928699654	2457
3	11350	1322.335928699654	2458
3	11350	1322.335928699654	2459
3	11353	1322.376026611943	2460
3	11353	1322.376026611943	2461
3	11353	1322.376026611943	2462
3	11353	1322.376026611943	2463
3	11353	1322.376026611943	2464
3	11376	1323.835928699654	2465
3	11376	1323.835928699654	2466
3	11381	1325.835928699654	2467
3	11381	1325.835928699654	2468
3	11387	1326.835928699654	2469
3	11387	1326.835928699654	2470
3	11390	1326.876026611943	2471
3	11390	1326.876026611943	2472
3	11390	1326.876026611943	2473
3	11390	1326.876026611943	2474
3	11390	1326.876026611943	2475
3	11413	1327.835928699654	2476
3	11413	1327.835928699654	2477
3	11419	1329.835928699654	2478
3	11419	1329.835928699654	2479
3	11425	1331.335928699654	2480
3	11425	1331.335928699654	2481
3	11428	1331.376026611943	2482
3	11428	1331.376026611943	2483
3	11428	1331.376026611943	2484
3	11428	1331.376026611943	2485
3	11428	1331.376026611943	2486
3	11444	1331.835928699654	2487
3	11444	1331.835928699654	2488
3	11457	1333.835928699654	2489
3	11457	1333.835928699654	2490
3	11462	1335.835928699654	2491
3	11462	1335.835928699654	2492
3	11463	1335.835928699654	2493
3	11463	1335.835928699654	2494
3	11468	1335.876026611943	2495
3	11468	1335.876026611943	2496
3	11468	1335.876026611943	2497
3	11468	1335.876026611943	2498
3	11468	1335.876026611943	2499
3	11494	1337.835928699654	2500
3	11494	1337.835928699654	2501
3	11500	1339.835928699654	2502
3	11500	1339.835928699654	2503
3	11505	1340.335928699654	2504
3	11505	1340.335928699654	2505
3	11508	1340.376026611943	2506
3	11508	1340.376026611943	2507
3	11508	1340.376026611943	2508
3	11508	1340.376026611943	2509
3	11508	1340.376026611943	2510
3	11531	1341.835928699654	2511
3	11531	1341.835928699654	2512
3	11538	1343.835928699654	2513
3	11538	1343.835928699654	2514
3	11543	1344.835928699654	2515
3	11543	1344.835928699654	2516
3	11546	1344.876026611943	2517
3	11546	1344.876026611943	2518
3	11546	1344.876026611943	2519
3	11546	1344.876026611943	2520
3	11546	1344.876026611943	2521
3	11568	1345.835928699654	2522
3	11568	1345.835928699654	2523
3	11575	1347.835928699654	2524
3	11575	1347.835928699654	2525
3	11581	1349.335928699654	2526
3	11581	1349.335928699654	2527
3	11584	1349.376026611943	2528
3	11584	1349.376026611943	2529
3	11584	1349.376026611943	2530
3	11584	1349.376026611943	2531
3	11584	1349.376026611943	2532
3	11600	1349.835928699654	2533
3	11600	1349.835928699654	2534
3	11612	1351.835928699654	2535
3	11612	1351.835928699654	2536
3	11619	1353.835928699654	2537
3	11619	1353.835928699654	2538
3	11620	1353.835928699654	2539
3	11620	1353.835928699654	2540
3	11625	1353.876026611943	2541
3	11625	1353.876026611943	2542
3	11625	1353.876026611943	2543
3	11625	1353.876026611943	2544
3	11625	1353.876026611943	2545
3	11649	1355.835928699654	2546
3	11649	1355.835928699654	2547
3	11656	1357.835928699654	2548
3	11656	1357.835928699654	2549
3	11662	1358.335928699654	2550
3	11662	1358.335928699654	2551
3	11665	1358.376026611943	2552
3	11665	1358.376026611943	2553
3	11665	1358.376026611943	2554
3	11665	1358.376026611943	2555
3	11665	1358.376026611943	2556
3	11687	1359.835928699654	2557
3	11687	1359.835928699654	2558
3	11693	1361.835928699654	2559
3	11693	1361.835928699654	2560
3	11699	1362.835928699654	2561
3	11699	1362.835928699654	2562
3	11702	1362.876026611943	2563
3	11702	1362.876026611943	2564
3	11702	1362.876026611943	2565
3	11702	1362.876026611943	2566
3	11702	1362.876026611943	2567
3	11725	1363.835928699654	2568
3	11725	1363.835928699654	2569
3	11730	1365.835928699654	2570
3	11730	1365.835928699654	2571
3	11737	1367.335928699654	2572
3	11737	1367.335928699654	2573
3	11740	1367.376026611943	2574
3	11740	1367.376026611943	2575
3	11740	1367.376026611943	2576
3	11740	1367.376026611943	2577
3	11740	1367.376026611943	2578
3	11756	1367.835928699654	2579
3	11756	1367.835928699654	2580
3	11768	1369.835928699654	2581
3	11768	1369.835928699654	2582
3	11774	1371.835928699654	2583
3	11774	1371.835928699654	2584
3	11775	1371.835928699654	2585
3	11775	1371.835928699654	2586
3	11780	1371.876026611943	2587
3	11780	1371.876026611943	2588
3	11780	1371.876026611943	2589
3	11780	1371.876026611943	2590
3	11780	1371.876026611943	2591
3	11806	1373.835928699654	2592
3	11806	1373.835928699654	2593
3	11811	1375.835928699654	2594
3	11811	1375.835928699654	2595
3	11817	1376.335928699654	2596
3	11817	1376.335928699654	2597
3	11820	1376.376026611943	2598
3	11820	1376.376026611943	2599
3	11820	1376.376026611943	2600
3	11820	1376.376026611943	2601
3	11820	1376.376026611943	2602
3	11843	1377.835928699654	2603
3	11843	1377.835928699654	2604
3	11849	1379.835928699654	2605
3	11849	1379.835928699654	2606
3	11854	1380.835928699654	2607
3	11854	1380.835928699654	2608
3	11857	1380.876026611943	2609
3	11857	1380.876026611943	2610
[...]
24	6484	755.845965673685	246
24	6490	756.845965673685	247
24	6490	756.845965673685	248
24	6514	757.845965673685	249
24	6514	757.845965673685	250
24	6521	759.845965673685	251
24	6521	759.845965673685	252
24	6528	761.345965673685	253
24	6528	761.345965673685	254
24	6544	761.845965673685	255
24	6544	761.845965673685	256
24	6558	763.845965673685	257
24	6558	763.845965673685	258
24	6565	765.845965673685	259
24	6565	765.845965673685	260
24	6566	765.845965673685	261
24	6566	765.845965673685	262
24	6596	767.845965673685	263
24	6596	767.845965673685	264
24	6602	769.845965673685	265
24	6602	769.845965673685	266
24	6608	770.345965673685	267
24	6608	770.345965673685	268
24	6634	771.845965673685	269
24	6634	771.845965673685	270
24	6640	773.845965673685	271
24	6640	773.845965673685	272
24	6646	774.845965673685	273
24	6646	774.845965673685	274
24	6670	775.845965673685	275
24	6670	775.845965673685	276
24	6678	777.845965673685	277
24	6678	777.845965673685	278
24	6685	779.345965673685	279
24	6685	779.345965673685	280
24	6700	779.845965673685	281
24	6700	779.845965673685	282
24	6716	781.845965673685	283
24	6716	781.845965673685	284
24	6722	783.845965673685	285
24	6722	783.845965673685	286
24	6723	783.845965673685	287
24	6723	783.845965673685	288
24	6753	785.845965673685	289
24	6753	785.845965673685	290
24	6760	787.845965673685	291
24	6760	787.845965673685	292
24	6765	788.345965673685	293
24	6765	788.345965673685	294
24	6791	789.845965673685	295
24	6791	789.845965673685	296
24	6797	791.845965673685	297
24	6797	791.845965673685	298
24	6802	792.845965673685	299
24	6802	792.845965673685	300
24	6826	793.845965673685	301
24	6826	793.845965673685	302
24	6834	795.845965673685	303
24	6834	795.845965673685	304
24	6840	797.345965673685	305
24	6840	797.345965673685	306
24	6856	797.845965673685	307
24	6856	797.845965673685	308
24	6872	799.845965673685	309
24	6872	799.845965673685	310
24	6878	801.845965673685	311
24	6878	801.845965673685	312
24	6879	801.845965673685	313
24	6879	801.845965673685	314
24	6908	803.845965673685	315
24	6908	803.845965673685	316
24	6915	805.845965673685	317
24	6915	805.845965673685	318
24	6921	806.345965673685	319
24	6921	806.345965673685	320
24	6946	807.845965673685	321
24	6946	807.845965673685	322
24	6953	809.845965673685	323
24	6953	809.845965673685	324
24	6958	810.845965673685	325
24	6958	810.845965673685	326
24	6983	811.845965673685	327
24	6983	811.845965673685	328
24	6989	813.845965673685	329
24	6989	813.845965673685	330
24	6996	815.345965673685	331
24	6996	815.345965673685	332
24	7012	815.845965673685	333
24	7012	815.845965673685	334
24	7027	817.845965673685	335
24	7027	817.845965673685	336
24	7034	819.845965673685	337
24	7034	819.845965673685	338
24	7035	819.845965673685	339
24	7035	819.845965673685	340
24	7065	821.845965673685	341
24	7065	821.845965673685	342
24	7070	823.845965673685	343
24	7070	823.845965673685	344
24	7077	824.345965673685	345
24	7077	824.345965673685	346
24	7102	825.845965673685	347
24	7102	825.845965673685	348
24	7108	827.845965673685	349
24	7108	827.845965673685	350
24	7113	828.845965673685	351
24	7113	828.845965673685	352
24	7139	829.845965673685	353
24	7139	829.845965673685	354
24	7146	831.845965673685	355
24	7146	831.845965673685	356
24	7151	833.345965673685	357
24	7151	833.345965673685	358
24	7167	833.845965673685	359
24	7167	833.845965673685	360
24	7183	835.845965673685	361
24	7183	835.845965673685	362
24	7189	837.845965673685	363
24	7189	837.845965673685	364
24	7190	837.845965673685	365
24	7190	837.845965673685	366
24	7221	839.845965673685	367
24	7221	839.845965673685	368
24	7227	841.845965673685	369
24	7227	841.845965673685	370
24	7232	842.345965673685	371
24	7232	842.345965673685	372
24	7257	843.845965673685	373
24	7257	843.845965673685	374
24	7264	845.845965673685	375
24	7264	845.845965673685	376
24	7270	846.845965673685	377
24	7270	846.845965673685	378
24	7294	847.845965673685	379
24	7294	847.845965673685	380
24	7302	849.845965673685	381
24	7302	849.845965673685	382
24	7308	851.345965673685	383
24	7308	851.345965673685	384
24	7324	851.845965673685	385
24	7324	851.845965673685	386
24	7338	853.845965673685	387
24	7338	853.845965673685	388
24	7345	855.845965673685	389
24	7345	855.845965673685	390
24	7346	855.845965673685	391
24	7346	855.845965673685	392
24	7376	857.845965673685	393
24	7376	857.845965673685	394
24	7383	859.845965673685	395
24	7383	859.845965673685	396
24	7388	860.345965673685	397
24	7388	860.345965673685	398
24	7414	861.845965673685	399
24	7414	861.845965673685	400
24	7419	863.845965673685	401
24	7419	863.845965673685	402
24	7426	864.845965673685	403
24	7426	864.845965673685	404
24	7450	865.845965673685	405
24	7450	865.845965673685	406
24	7457	867.845965673685	407
24	7457	867.845965673685	408
24	9017	1051.770376153251	409
24	9017	1051.770376153251	410
24	9034	1053.770376153251	411
24	9034	1053.770376153251	412
24	9041	1055.770376153251	413
24	9041	1055.770376153251	414
24	9052	1056.270376153251	415
24	9052	1056.270376153251	416
24	9070	1057.770376153251	417
24	9070	1057.770376153251	418
24	9077	1059.770376153251	419
24	9077	1059.770376153251	420
24	9086	1060.770376153251	421
24	9086	1060.770376153251	422
24	9114	1061.770376153251	423
24	9114	1061.770376153251	424
24	9125	1063.770376153251	425
24	9125	1063.770376153251	426
24	9130	1065.270376153251	427
24	9130	1065.270376153251	428
24	9146	1065.770376153251	429
24	9146	1065.770376153251	430
24	9163	1067.770376153251	431
24	9163	1067.770376153251	432
24	9168	1069.770376153251	433
24	9168	1069.770376153251	434
24	9169	1069.770376153251	435
24	9169	1069.770376153251	436
24	9200	1071.770376153251	437
24	9200	1071.770376153251	438
24	9206	1073.770376153251	439
24	9206	1073.770376153251	440
24	9211	1074.270376153251	441
24	9211	1074.270376153251	442
24	9236	1075.770376153251	443
24	9236	1075.770376153251	444
24	9244	1077.770376153251	445
24	9244	1077.770376153251	446
24	9249	1078.770376153251	447
24	9249	1078.770376153251	448
24	9273	1079.770376153251	449
24	9273	1079.770376153251	450
24	9281	1081.770376153251	451
24	9281	1081.770376153251	452
24	9287	1083.270376153251	453
24	9287	1083.270376153251	454
24	9303	1083.770376153251	455
24	9303	1083.770376153251	456
24	9317	1085.770376153251	457
24	9317	1085.770376153251	458
24	9325	1087.770376153251	459
24	9325	1087.770376153251	460
24	9326	1087.770376153251	461
24	9326	1087.770376153251	462
24	9355	1089.770376153251	463
24	9355	1089.770376153251	464
24	9362	1091.770376153251	465
24	9362	1091.770376153251	466
24	9368	1092.270376153251	467
24	9368	1092.270376153251	468
24	9393	1093.770376153251	469
24	9393	1093.770376153251	470
24	9398	1095.770376153251	471
24	9398	1095.770376153251	472
24	9405	1096.770376153251	473
24	9405	1096.770376153251	474
24	9430	1097.770376153251	475
24	9430	1097.770376153251	476
24	9436	1099.770376153251	477
24	9436	1099.770376153251	478
24	9443	1101.270376153251	479
24	9443	1101.270376153251	480
24	9459	1101.770376153251	481
24	9459	1101.770376153251	482
24	9474	1103.770376153251	483
24	9474	1103.770376153251	484
24	9479	1105.770376153251	485
24	9479	1105.770376153251	486
24	9480	1105.770376153251	487
24	9480	1105.770376153251	488
24	9512	1107.770376153251	489
24	9512	1107.770376153251	490
24	9517	1109.770376153251	491
24	9517	1109.770376153251	492
24	9522	1110.270376153251	493
24	9522	1110.270376153251	494
24	9549	1111.770376153251	495
24	9549	1111.770376153251	496
24	9555	1113.770376153251	497
24	9555	1113.770376153251	498
24	9560	1114.770376153251	499
24	9560	1114.770376153251	500
24	9584	1115.770376153251	501
24	9584	1115.770376153251	502
24	9593	1117.770376153251	503
24	9593	1117.770376153251	504
24	9598	1119.270376153251	505
24	9598	1119.270376153251	506
24	9614	1119.770376153251	507
24	9614	1119.770376153251	508
24	9630	1121.770376153251	509
24	9630	1121.770376153251	510
24	9636	1123.770376153251	511
24	9636	1123.770376153251	512
24	9637	1123.770376153251	513
24	9637	1123.770376153251	514
24	9666	1125.770376153251	515
24	9666	1125.770376153251	516
24	9674	1127.770376153251	517
24	9674	1127.770376153251	518
24	9679	1128.270376153251	519
24	9679	1128.270376153251	520
24	9704	1129.770376153251	521
24	9704	1129.770376153251	522
24	9711	1131.770376153251	523
24	9711	1131.770376153251	524
24	9717	1132.770376153251	525
24	9717	1132.770376153251	526
24	9741	1133.770376153251	527
24	9741	1133.770376153251	528
24	9747	1135.770376153251	529
24	9747	1135.770376153251	530
24	9755	1137.270376153251	531
24	9755	1137.270376153251	532
24	9771	1137.770376153251	533
24	9771	1137.770376153251	534
24	9785	1139.770376153251	535
24	9785	1139.770376153251	536
24	9792	1141.770376153251	537
24	9792	1141.770376153251	538
24	9793	1141.770376153251	539
24	9793	1141.770376153251	540
24	9823	1143.770376153251	541
24	9823	1143.770376153251	542
24	9828	1145.770376153251	543
24	9828	1145.770376153251	544
24	9835	1146.270376153251	545
24	9835	1146.270376153251	546
24	9861	1147.770376153251	547
24	9861	1147.770376153251	548
24	9866	1149.770376153251	549
24	9866	1149.770376153251	550
24	9871	1150.770376153251	551
24	9871	1150.770376153251	552
24	9897	1151.770376153251	553
24	9897	1151.770376153251	554
24	9904	1153.770376153251	555
24	9904	1153.770376153251	556
24	9909	1155.270376153251	557
24	9909	1155.270376153251	558
24	9925	1155.770376153251	559
24	9925	1155.770376153251	560
24	9942	1157.770376153251	561
24	9942	1157.770376153251	562
24	9947	1159.770376153251	563
24	9947	1159.770376153251	564
24	9948	1159.770376153251	565
24	9948	1159.770376153251	566
24	9979	1161.770376153251	567
24	9979	1161.770376153251	568
24	9985	1163.770376153251	569
24	9985	1163.770376153251	570
24	9990	1164.270376153251	571
24	9990	1164.270376153251	572
24	10015	1165.770376153251	573
24	10015	1165.770376153251	574
24	10023	1167.770376153251	575
24	10023	1167.770376153251	576
24	10028	1168.770376153251	577
24	10028	1168.770376153251	578
24	10052	1169.770376153251	579
24	10052	1169.770376153251	580
24	10060	1171.770376153251	581
24	10060	1171.770376153251	582
24	10066	1173.270376153251	583
24	10066	1173.270376153251	584
24	10082	1173.770376153251	585
24	10082	1173.770376153251	586
24	10096	1175.770376153251	587
24	10096	1175.770376153251	588
24	10104	1177.770376153251	589
24	10104	1177.770376153251	590
24	10105	1177.770376153251	591
24	10105	1177.770376153251	592
24	10134	1179.770376153251	593
24	10134	1179.770376153251	594
24	10141	1181.770376153251	595
24	10141	1181.770376153251	596
24	10147	1182.270376153251	597
24	10147	1182.270376153251	598
24	10172	1183.770376153251	599
24	10172	1183.770376153251	600
24	10177	1185.770376153251	601
24	10177	1185.770376153251	602
24	10184	1186.770376153251	603
24	10184	1186.770376153251	604
24	10209	1187.770376153251	605
24	10209	1187.770376153251	606
24	10215	1189.770376153251	607
24	10215	1189.770376153251	608
24	10222	1191.270376153251	609
24	10222	1191.270376153251	610
24	10238	1191.770376153251	611
24	10238	1191.770376153251	612
24	10253	1193.770376153251	613
24	10253	1193.770376153251	614
24	10258	1195.770376153251	615
24	10258	1195.770376153251	616
24	10259	1195.770376153251	617
24	10259	1195.770376153251	618
24	10291	1197.770376153251	619
24	10291	1197.770376153251	620
24	10296	1199.770376153251	621
24	10296	1199.770376153251	622
24	10301	1200.270376153251	623
24	10301	1200.270376153251	624
24	10328	1201.770376153251	625
24	10328	1201.770376153251	626
24	10334	1203.770376153251	627
24	10334	1203.770376153251	628
24	10339	1204.770376153251	629
24	10339	1204.770376153251	630
24	10363	1205.770376153251	631
24	10363	1205.770376153251	632
25	5323	621.924410479566	1
25	5324	621.924410479566	2
25	5351	623.924410479566	3
25	5358	625.924410479566	4
25	5364	626.424410479566	5
25	5389	627.924410479566	6
25	5395	629.924410479566	7
25	5401	630.924410479566	8
25	5427	631.924410479566	9
25	5432	633.924410479566	10
25	5439	635.424410479566	11
25	5458	635.924410479566	12
25	5470	637.924410479566	13
25	5478	639.924410479566	14
25	5479	639.924410479566	15
25	5508	641.924410479566	16
25	5513	643.924410479566	17
25	5519	644.424410479566	18
25	5545	645.924410479566	19
25	5551	647.924410479566	20
25	5556	648.924410479566	21
25	5582	649.924410479566	22
25	5589	651.924410479566	23
25	5594	653.424410479566	24
25	5613	653.924410479566	25
25	5626	655.924410479566	26
25	5634	657.924410479566	27
25	5635	657.924410479566	28
25	5663	659.924410479566	29
25	5670	661.924410479566	30
25	5675	662.424410479566	31
25	5700	663.924410479566	32
25	5707	665.924410479566	33
25	5713	666.924410479566	34
25	5738	667.924410479566	35
25	5744	669.924410479566	36
25	5751	671.424410479566	37
25	5770	671.924410479566	38
25	5781	673.924410479566	39
25	5790	675.924410479566	40
25	5791	675.924410479566	41
25	5819	677.924410479566	42
25	5825	679.924410479566	43
25	5831	680.424410479566	44
25	5857	681.924410479566	45
25	5862	683.924410479566	46
25	5868	684.924410479566	47
25	5894	685.924410479566	48
25	5900	687.924410479566	49
25	5906	689.424410479566	50
25	5925	689.924410479566	51
25	5938	691.924410479566	52
25	5945	693.924410479566	53
25	5946	693.924410479566	54
25	5975	695.924410479566	55
25	5981	697.924410479566	56
25	5986	698.424410479566	57
25	6012	699.924410479566	58
25	6019	701.924410479566	59
25	6024	702.924410479566	60
25	6049	703.924410479566	61
25	6056	705.924410479566	62
25	6062	707.424410479566	63
25	6081	707.924410479566	64
25	6093	709.924410479566	65
25	6102	711.924410479566	66
25	6103	711.924410479566	67
25	6130	713.924410479566	68
25	6137	715.924410479566	69
25	6143	716.424410479566	70
25	6168	717.924410479566	71
25	6174	719.924410479566	72
25	6180	720.924410479566	73
25	6206	721.924410479566	74
25	6211	723.924410479566	75
25	6218	725.424410479566	76
25	6237	725.924410479566	77
25	6249	727.924410479566	78
25	6257	729.924410479566	79
25	6258	729.924410479566	80
25	6287	731.924410479566	81
25	6292	733.924410479566	82
25	6298	734.424410479566	83
25	6324	735.924410479566	84
25	6330	737.924410479566	85
25	6335	738.924410479566	86
25	6361	739.924410479566	87
25	6368	741.924410479566	88
25	6373	743.424410479566	89
25	6392	743.924410479566	90
25	6405	745.924410479566	91
25	6413	747.924410479566	92
25	6414	747.924410479566	93
25	6442	749.924410479566	94
25	6449	751.924410479566	95
25	6454	752.424410479566	96
25	6479	753.924410479566	97
25	6486	755.924410479566	98
25	6492	756.924410479566	99
25	6517	757.924410479566	100
25	6523	759.924410479566	101
25	6530	761.424410479566	102
25	6549	761.924410479566	103
25	6560	763.924410479566	104
25	6569	765.924410479566	105
25	6570	765.924410479566	106
25	6598	767.924410479566	107
25	6604	769.924410479566	108
25	6610	770.424410479566	109
25	6636	771.924410479566	110
25	6642	773.924410479566	111
25	6648	774.924410479566	112
25	6673	775.924410479566	113
25	6680	777.924410479566	114
25	6687	779.424410479566	115
25	6705	779.924410479566	116
25	6718	781.924410479566	117
25	6726	783.924410479566	118
25	6727	783.924410479566	119
25	6755	785.924410479566	120
25	6762	787.924410479566	121
25	6767	788.424410479566	122
25	6793	789.924410479566	123
25	6799	791.924410479566	124
25	6804	792.924410479566	125
25	6829	793.924410479566	126
25	6836	795.924410479566	127
25	6842	797.424410479566	128
25	6861	797.924410479566	129
25	6874	799.924410479566	130
25	6882	801.924410479566	131
25	6883	801.924410479566	132
25	6910	803.924410479566	133
25	6917	805.924410479566	134
25	6923	806.424410479566	135
25	6948	807.924410479566	136
25	6955	809.924410479566	137
25	6960	810.924410479566	138
25	6986	811.924410479566	139
25	6991	813.924410479566	140
25	6998	815.424410479566	141
25	7017	815.924410479566	142
25	7029	817.924410479566	143
25	7038	819.924410479566	144
25	7039	819.924410479566	145
25	7067	821.924410479566	146
25	7072	823.924410479566	147
25	7079	824.424410479566	148
25	7104	825.924410479566	149
25	7110	827.924410479566	150
25	7115	828.924410479566	151
25	7142	829.924410479566	152
25	7148	831.924410479566	153
25	7153	833.424410479566	154
25	7172	833.924410479566	155
25	7185	835.924410479566	156
25	7193	837.924410479566	157
25	7194	837.924410479566	158
25	7223	839.924410479566	159
25	7229	841.924410479566	160
25	7234	842.424410479566	161
25	7259	843.924410479566	162
25	7266	845.924410479566	163
25	7272	846.924410479566	164
25	7297	847.924410479566	165
25	7304	849.924410479566	166
25	7310	851.424410479566	167
25	7329	851.924410479566	168
25	7340	853.924410479566	169
25	7349	855.924410479566	170
25	7350	855.924410479566	171
25	7378	857.924410479566	172
25	7385	859.924410479566	173
25	7390	860.424410479566	174
25	7416	861.924410479566	175
25	7421	863.924410479566	176
25	7428	864.924410479566	177
25	7453	865.924410479566	178
25	7459	867.924410479566	179
25	9020	1051.848820959132	180
25	9036	1053.848820959132	181
25	9043	1055.848820959132	182
25	9055	1056.348820959132	183
25	9072	1057.848820959132	184
25	9079	1059.848820959132	185
25	9088	1060.848820959132	186
25	9117	1061.848820959132	187
25	9127	1063.848820959132	188
25	9132	1065.348820959132	189
25	9151	1065.848820959132	190
25	9165	1067.848820959132	191
25	9172	1069.848820959132	192
25	9173	1069.848820959132	193
25	9202	1071.848820959132	194
25	9208	1073.848820959132	195
25	9213	1074.348820959132	196
25	9238	1075.848820959132	197
25	9246	1077.848820959132	198
25	9251	1078.848820959132	199
25	9276	1079.848820959132	200
25	9283	1081.848820959132	201
25	9289	1083.348820959132	202
25	9308	1083.848820959132	203
25	9319	1085.848820959132	204
25	9329	1087.848820959132	205
25	9330	1087.848820959132	206
25	9357	1089.848820959132	207
25	9364	1091.848820959132	208
25	9370	1092.348820959132	209
25	9395	1093.848820959132	210
25	9400	1095.848820959132	211
25	9407	1096.848820959132	212
25	9433	1097.848820959132	213
25	9438	1099.848820959132	214
25	9445	1101.348820959132	215
25	9464	1101.848820959132	216
25	9476	1103.848820959132	217
25	9483	1105.848820959132	218
25	9484	1105.848820959132	219
25	9514	1107.848820959132	220
25	9519	1109.848820959132	221
25	9524	1110.348820959132	222
25	9551	1111.848820959132	223
25	9557	1113.848820959132	224
25	9562	1114.848820959132	225
25	9587	1115.848820959132	226
25	9595	1117.848820959132	227
25	9600	1119.348820959132	228
25	9619	1119.848820959132	229
25	9632	1121.848820959132	230
25	9640	1123.848820959132	231
25	9641	1123.848820959132	232
25	9668	1125.848820959132	233
25	9676	1127.848820959132	234
25	9681	1128.348820959132	235
25	9706	1129.848820959132	236
25	9713	1131.848820959132	237
25	9719	1132.848820959132	238
25	9744	1133.848820959132	239
25	9749	1135.848820959132	240
25	9757	1137.348820959132	241
25	9776	1137.848820959132	242
25	9787	1139.848820959132	243
25	9796	1141.848820959132	244
25	9797	1141.848820959132	245
25	9825	1143.848820959132	246
25	9830	1145.848820959132	247
25	9837	1146.348820959132	248
25	9863	1147.848820959132	249
25	9868	1149.848820959132	250
25	9873	1150.848820959132	251
25	9900	1151.848820959132	252
25	9906	1153.848820959132	253
25	9911	1155.348820959132	254
25	9930	1155.848820959132	255
25	9944	1157.848820959132	256
25	9951	1159.848820959132	257
25	9952	1159.848820959132	258
25	9981	1161.848820959132	259
25	9987	1163.848820959132	260
25	9992	1164.348820959132	261
25	10017	1165.848820959132	262
25	10025	1167.848820959132	263
25	10030	1168.848820959132	264
25	10055	1169.848820959132	265
25	10062	1171.848820959132	266
25	10068	1173.348820959132	267
25	10087	1173.848820959132	268
25	10098	1175.848820959132	269
25	10108	1177.848820959132	270
25	10109	1177.848820959132	271
25	10136	1179.848820959132	272
25	10143	1181.848820959132	273
25	10149	1182.348820959132	274
25	10174	1183.848820959132	275
25	10179	1185.848820959132	276
25	10186	1186.848820959132	277
25	10212	1187.848820959132	278
25	10217	1189.848820959132	279
25	10224	1191.348820959132	280
25	10243	1191.848820959132	281
25	10255	1193.848820959132	282
25	10262	1195.848820959132	283
25	10263	1195.848820959132	284
25	10293	1197.848820959132	285
25	10298	1199.848820959132	286
25	10303	1200.348820959132	287
25	10330	1201.848820959132	288
25	10336	1203.848820959132	289
25	10341	1204.848820959132	290
25	10366	1205.848820959132	291

