version 2
run StaticNetwork-1-20220319-22:42:45-12848
attr configname StaticNetwork
attr datetime 20220319-22:42:45
attr experiment StaticNetwork
attr inifile omnetpp.ini
attr iterationvars "$0=1, $1=7, $2=0"
attr iterationvarsf 1,7,0-
attr measurement "$0=1, $1=7, $2=0"
attr network RAFT_Network
attr processid 12848
attr repetition 1
attr replication #1
attr resultdir results
attr runnumber 1
attr seedset 1
param **.servers_number 5
param **.clients_number 5
param **.client[*].requestMsgTimeout "normal(7.0s, 1.5s)"
param **.cloud.propDelay "uniform(0.1s, 0.3s)"
param **.server[*].electionTimeout "normal(5.0s, 1s)"
param **.server[*].heartbeatTimeout 2s
param **.server[*].appendEntriesTimeout 4.5s
param **.server[*].checkFailureTimeout 1s
param **.server[*].checkRecoveryTimeout 1s
param **.failureProbability 1
param **.recoveryProbability 7
param **.messageLossProbability 0

vector 0 RAFT_Network.server[0] serverState ETV
vector 1 RAFT_Network.server[1] serverState ETV
vector 2 RAFT_Network.server[2] serverState ETV
vector 3 RAFT_Network.server[3] serverState ETV
vector 4 RAFT_Network.server[4] serverState ETV
0	0	0	0
1	0	0	0
2	0	0	0
3	0	0	0
4	0	0	0
vector 5 RAFT_Network.server[2] totMsgSent ETV
vector 6 RAFT_Network.server[2] totRequestVoteMsgSent ETV
vector 7 RAFT_Network.server[0] totMsgReceived ETV
vector 8 RAFT_Network.server[0] totMsgSent ETV
vector 9 RAFT_Network.server[0] totReplyToClientRequestMsgSent ETV
vector 10 RAFT_Network.server[3] totMsgReceived ETV
vector 11 RAFT_Network.server[3] totMsgSent ETV
vector 12 RAFT_Network.server[3] totReplyToClientRequestMsgSent ETV
vector 13 RAFT_Network.server[4] totMsgSent ETV
vector 14 RAFT_Network.server[4] totRequestVoteMsgSent ETV
0	27	5.021919424931	0
0	27	5.021919424931	0
2	26	5.010483204601	0
2	26	5.010483204601	1
3	28	5.049181574677	0
3	28	5.049181574677	0
4	29	5.049181574677	0
4	29	5.049181574677	1
5	26	5.010483204601	1
5	26	5.010483204601	2
5	26	5.010483204601	3
5	26	5.010483204601	4
6	26	5.010483204601	1
6	26	5.010483204601	2
6	26	5.010483204601	3
6	26	5.010483204601	4
7	27	5.021919424931	1
7	30	5.050570056058	2
8	27	5.021919424931	1
8	30	5.050570056058	2
9	27	5.021919424931	1
9	30	5.050570056058	2
10	28	5.049181574677	1
11	28	5.049181574677	1
12	28	5.049181574677	1
13	29	5.049181574677	1
13	29	5.049181574677	2
13	29	5.049181574677	3
13	29	5.049181574677	4
14	29	5.049181574677	1
14	29	5.049181574677	2
14	29	5.049181574677	3
14	29	5.049181574677	4
vector 15 RAFT_Network.server[2] totMsgReceived ETV
vector 16 RAFT_Network.server[2] totAppendEntriesMsgSent ETV
2	32	5.059093909465	1
2	32	5.059093909465	2
5	32	5.059093909465	5
5	32	5.059093909465	6
5	32	5.059093909465	7
5	32	5.059093909465	8
15	31	5.056745220561	1
15	32	5.059093909465	2
16	32	5.059093909465	1
16	32	5.059093909465	2
16	32	5.059093909465	3
16	32	5.059093909465	4
vector 17 RAFT_Network.server[2] totReplyToClientRequestMsgSent ETV
5	33	5.060220235521	9
15	33	5.060220235521	3
17	33	5.060220235521	1
vector 18 RAFT_Network.server[4] totMsgReceived ETV
18	34	5.063610848555	1
vector 19 RAFT_Network.server[1] totMsgReceived ETV
vector 20 RAFT_Network.server[1] totMsgSent ETV
vector 21 RAFT_Network.server[1] totReplyToClientRequestMsgSent ETV
vector 22 RAFT_Network.server[0] totReplyToAppendEntriesMsgSent ETV
vector 23 RAFT_Network.server[3] totReplyToAppendEntriesMsgSent ETV
1	35	5.065987220529	0
1	35	5.065987220529	0
7	36	5.070530129795	3
8	36	5.070530129795	3
10	37	5.087261171032	2
11	37	5.087261171032	2
15	39	5.094824816916	4
19	35	5.065987220529	1
19	38	5.090081940246	2
20	35	5.065987220529	1
20	38	5.090081940246	2
21	35	5.065987220529	1
21	38	5.090081940246	2
22	36	5.070530129795	1
23	37	5.087261171032	1
15	40	5.104210133152	5
15	41	5.107704614329	6
vector 24 RAFT_Network.server[1] totReplyToAppendEntriesMsgSent ETV
19	42	5.114597925393	3
20	42	5.114597925393	3
24	42	5.114597925393	1
18	43	5.120633100796	2
10	44	5.12983995924	3
11	44	5.12983995924	3
12	44	5.12983995924	2
vector 25 RAFT_Network.server[4] totReplyToClientRequestMsgSent ETV
13	45	5.150432135165	5
18	45	5.150432135165	3
25	45	5.150432135165	1
vector 26 RAFT_Network.server[4] totReplyToAppendEntriesMsgSent ETV
4	48	5.199042840029	1
4	48	5.199042840029	0
13	48	5.199042840029	6
15	46	5.152820838016	7
15	47	5.161470796009	8
18	48	5.199042840029	4
26	48	5.199042840029	1
vector 27 RAFT_Network.client[1] responseTime ETV
vector 28 RAFT_Network.client[0] responseTime ETV
vector 29 RAFT_Network.client[4] responseTime ETV
vector 30 RAFT_Network.client[2] responseTime ETV
vector 31 RAFT_Network.client[3] responseTime ETV
vector 32 RAFT_Network.server[4] totAppendEntriesMsgSent ETV
vector 33 RAFT_Network.server[2] totReplyToAppendEntriesMsgSent ETV
0	541	36	0
0	541	36	-1
0	720	47	-1
0	720	47	0
0	1087	72.249612896087	0
0	1087	72.249612896087	0
0	1589	100	0
1	332	23	0
1	332	23	-1
1	432	28	-1
1	432	28	0
1	1090	72.289124780275	0
1	1090	72.289124780275	0
1	1306	85	0
1	1306	85	-1
1	1365	88	-1
1	1365	88	0
1	1589	100	0
2	1068	69	2
2	1068	69	-1
2	1199	78	-1
2	1199	78	0
2	1204	78.330714601669	0
2	1204	78.330714601669	0
2	1589	100	0
3	852	55	0
3	852	55	-1
3	1021	67	-1
3	1021	67	0
3	1093	72.328882799269	0
3	1093	72.328882799269	0
3	1589	100	0
4	1086	72.248224414706	0
4	1086	72.248224414706	1
4	1091	72.319675940825	1
4	1091	72.319675940825	2
4	1589	100	2
5	78	7.059093909465	10
5	78	7.059093909465	11
5	78	7.059093909465	12
5	78	7.059093909465	13
5	115	9.059093909465	14
5	115	9.059093909465	15
5	115	9.059093909465	16
5	115	9.059093909465	17
5	125	9.559093909465	18
5	125	9.559093909465	19
5	125	9.559093909465	20
5	125	9.559093909465	21
5	129	9.607704614329	22
5	129	9.607704614329	23
5	129	9.607704614329	24
5	129	9.607704614329	25
5	129	9.607704614329	26
5	164	11.059093909465	27
5	164	11.059093909465	28
5	164	11.059093909465	29
5	164	11.059093909465	30
5	183	13.059093909465	31
5	183	13.059093909465	32
5	183	13.059093909465	33
5	183	13.059093909465	34
5	197	14.059093909465	35
5	197	14.059093909465	36
5	197	14.059093909465	37
5	197	14.059093909465	38
5	201	14.107704614329	39
5	201	14.107704614329	40
5	201	14.107704614329	41
5	201	14.107704614329	42
5	201	14.107704614329	43
5	231	15.059093909465	44
5	231	15.059093909465	45
5	231	15.059093909465	46
5	231	15.059093909465	47
5	250	17.059093909465	48
5	250	17.059093909465	49
5	250	17.059093909465	50
5	250	17.059093909465	51
5	264	18.559093909465	52
5	264	18.559093909465	53
5	264	18.559093909465	54
5	264	18.559093909465	55
5	268	18.607704614329	56
5	268	18.607704614329	57
5	268	18.607704614329	58
5	268	18.607704614329	59
5	268	18.607704614329	60
5	293	19.059093909465	61
5	293	19.059093909465	62
5	293	19.059093909465	63
5	293	19.059093909465	64
5	317	21.059093909465	65
5	317	21.059093909465	66
5	317	21.059093909465	67
5	317	21.059093909465	68
5	336	23.059093909465	69
5	336	23.059093909465	70
5	336	23.059093909465	71
5	336	23.059093909465	72
5	337	23.059093909465	73
5	337	23.059093909465	74
5	337	23.059093909465	75
5	337	23.059093909465	76
5	344	23.107704614329	77
5	344	23.107704614329	78
5	344	23.107704614329	79
5	344	23.107704614329	80
5	344	23.107704614329	81
5	382	25.059093909465	82
5	382	25.059093909465	83
5	382	25.059093909465	84
5	382	25.059093909465	85
5	400	27.059093909465	86
5	400	27.059093909465	87
5	400	27.059093909465	88
5	400	27.059093909465	89
5	408	27.559093909465	90
5	408	27.559093909465	91
5	408	27.559093909465	92
5	408	27.559093909465	93
5	412	27.607704614329	94
5	412	27.607704614329	95
5	412	27.607704614329	96
5	412	27.607704614329	97
5	412	27.607704614329	98
5	446	29.059093909465	99
5	446	29.059093909465	100
5	446	29.059093909465	101
5	446	29.059093909465	102
5	465	31.059093909465	103
5	465	31.059093909465	104
5	465	31.059093909465	105
5	465	31.059093909465	106
5	479	32.059093909465	107
5	479	32.059093909465	108
5	479	32.059093909465	109
5	479	32.059093909465	110
5	483	32.107704614329	111
5	483	32.107704614329	112
5	483	32.107704614329	113
5	483	32.107704614329	114
5	483	32.107704614329	115
5	513	33.059093909465	116
5	513	33.059093909465	117
5	513	33.059093909465	118
5	513	33.059093909465	119
5	532	35.059093909465	120
5	532	35.059093909465	121
5	532	35.059093909465	122
5	532	35.059093909465	123
5	546	36.559093909465	124
5	546	36.559093909465	125
5	546	36.559093909465	126
5	546	36.559093909465	127
5	551	36.652820838016	128
5	551	36.652820838016	129
5	551	36.652820838016	130
5	551	36.652820838016	131
5	551	36.652820838016	132
5	574	37.059093909465	133
5	574	37.059093909465	134
5	574	37.059093909465	135
5	574	37.059093909465	136
5	597	39.059093909465	137
5	597	39.059093909465	138
5	597	39.059093909465	139
5	597	39.059093909465	140
5	615	41.059093909465	141
5	615	41.059093909465	142
5	615	41.059093909465	143
5	615	41.059093909465	144
5	616	41.059093909465	145
5	616	41.059093909465	146
5	616	41.059093909465	147
5	616	41.059093909465	148
5	625	41.152820838016	149
5	625	41.152820838016	150
5	625	41.152820838016	151
5	625	41.152820838016	152
5	625	41.152820838016	153
5	661	43.059093909465	154
5	661	43.059093909465	155
5	661	43.059093909465	156
5	661	43.059093909465	157
5	679	45.059093909465	158
5	679	45.059093909465	159
5	679	45.059093909465	160
5	679	45.059093909465	161
5	687	45.559093909465	162
5	687	45.559093909465	163
5	687	45.559093909465	164
5	687	45.559093909465	165
5	692	45.652820838016	166
5	692	45.652820838016	167
5	692	45.652820838016	168
5	692	45.652820838016	169
5	692	45.652820838016	170
5	725	47.059093909465	171
5	725	47.059093909465	172
5	725	47.059093909465	173
5	725	47.059093909465	174
5	744	49.059093909465	175
5	744	49.059093909465	176
5	744	49.059093909465	177
5	744	49.059093909465	178
5	758	50.059093909465	179
5	758	50.059093909465	180
5	758	50.059093909465	181
5	758	50.059093909465	182
5	762	50.107704614329	183
5	762	50.107704614329	184
5	762	50.107704614329	185
5	762	50.107704614329	186
5	762	50.107704614329	187
5	792	51.059093909465	188
5	792	51.059093909465	189
5	792	51.059093909465	190
5	792	51.059093909465	191
5	811	53.059093909465	192
5	811	53.059093909465	193
5	811	53.059093909465	194
5	811	53.059093909465	195
5	825	54.559093909465	196
5	825	54.559093909465	197
5	825	54.559093909465	198
5	825	54.559093909465	199
5	829	54.607704614329	200
5	829	54.607704614329	201
5	829	54.607704614329	202
5	829	54.607704614329	203
5	829	54.607704614329	204
5	854	55.059093909465	205
5	854	55.059093909465	206
5	854	55.059093909465	207
5	854	55.059093909465	208
5	877	57.059093909465	209
5	877	57.059093909465	210
5	877	57.059093909465	211
5	877	57.059093909465	212
5	895	59.059093909465	213
5	895	59.059093909465	214
5	895	59.059093909465	215
5	895	59.059093909465	216
5	896	59.059093909465	217
5	896	59.059093909465	218
5	896	59.059093909465	219
5	896	59.059093909465	220
5	905	59.152820838016	221
5	905	59.152820838016	222
5	905	59.152820838016	223
5	905	59.152820838016	224
5	905	59.152820838016	225
5	941	61.059093909465	226
5	941	61.059093909465	227
5	941	61.059093909465	228
5	941	61.059093909465	229
5	959	63.059093909465	230
5	959	63.059093909465	231
5	959	63.059093909465	232
5	959	63.059093909465	233
5	967	63.559093909465	234
5	967	63.559093909465	235
5	967	63.559093909465	236
5	967	63.559093909465	237
5	972	63.652820838016	238
5	972	63.652820838016	239
5	972	63.652820838016	240
5	972	63.652820838016	241
5	972	63.652820838016	242
5	1005	65.059093909465	243
5	1005	65.059093909465	244
5	1005	65.059093909465	245
5	1005	65.059093909465	246
5	1023	67.059093909465	247
5	1023	67.059093909465	248
5	1023	67.059093909465	249
5	1023	67.059093909465	250
5	1037	68.059093909465	251
5	1037	68.059093909465	252
5	1037	68.059093909465	253
5	1037	68.059093909465	254
5	1041	68.107704614329	255
5	1041	68.107704614329	256
5	1041	68.107704614329	257
5	1041	68.107704614329	258
5	1041	68.107704614329	259
5	1204	78.330714601669	260
5	1223	80.330714601669	261
5	1237	81.330714601669	262
5	1279	82.330714601669	263
5	1298	84.330714601669	264
5	1312	85.830714601669	265
5	1340	86.330714601669	266
5	1371	88.330714601669	267
5	1392	90.330714601669	268
5	1393	90.330714601669	269
5	1446	92.330714601669	270
5	1465	94.330714601669	271
5	1474	94.830714601669	272
5	1521	96.330714601669	273
5	1540	98.330714601669	274
5	1554	99.330714601669	275
7	63	6.595357374915	4
7	64	6.601313422944	5
7	79	7.070530129795	6
7	116	9.070530129795	7
7	126	9.570530129795	8
7	165	11.070530129795	9
7	184	13.070530129795	10
7	198	14.070530129795	11
7	232	15.070530129795	12
7	251	17.070530129795	13
7	265	18.570530129795	14
7	295	19.070530129795	15
7	318	21.070530129795	16
7	338	23.070530129795	17
7	339	23.070530129795	18
7	383	25.070530129795	19
7	401	27.070530129795	20
7	409	27.570530129795	21
7	447	29.070530129795	22
7	466	31.070530129795	23
7	480	32.070530129795	24
7	514	33.070530129795	25
7	533	35.070530129795	26
7	547	36.570530129795	27
7	575	37.070530129795	28
7	598	39.070530129795	29
7	617	41.070530129795	30
7	618	41.070530129795	31
7	662	43.070530129795	32
7	680	45.070530129795	33
7	688	45.570530129795	34
7	726	47.070530129795	35
7	745	49.070530129795	36
7	759	50.070530129795	37
7	793	51.070530129795	38
7	812	53.070530129795	39
7	826	54.570530129795	40
7	856	55.070530129795	41
7	878	57.070530129795	42
7	897	59.070530129795	43
7	898	59.070530129795	44
7	942	61.070530129795	45
7	960	63.070530129795	46
7	968	63.570530129795	47
7	1006	65.070530129795	48
7	1024	67.070530129795	49
7	1038	68.070530129795	50
7	1087	72.249612896087	51
7	1092	72.321064422206	52
7	1112	74.321064422206	53
7	1126	74.95514233263	54
7	1143	76.321064422206	55
7	1154	76.821064422206	56
7	1174	77.091688647746	57
7	1203	78.321064422206	58
7	1222	80.321064422206	59
7	1236	81.321064422206	60
7	1278	82.321064422206	61
7	1297	84.321064422206	62
7	1311	85.821064422206	63
7	1338	86.321064422206	64
7	1370	88.321064422206	65
7	1390	90.321064422206	66
7	1391	90.321064422206	67
7	1445	92.321064422206	68
7	1464	94.321064422206	69
7	1473	94.821064422206	70
7	1520	96.321064422206	71
7	1539	98.321064422206	72
7	1553	99.321064422206	73
8	79	7.070530129795	4
8	116	9.070530129795	5
8	126	9.570530129795	6
8	165	11.070530129795	7
8	184	13.070530129795	8
8	198	14.070530129795	9
8	232	15.070530129795	10
8	251	17.070530129795	11
8	265	18.570530129795	12
8	295	19.070530129795	13
8	318	21.070530129795	14
8	338	23.070530129795	15
8	339	23.070530129795	16
8	383	25.070530129795	17
8	401	27.070530129795	18
8	409	27.570530129795	19
8	447	29.070530129795	20
8	466	31.070530129795	21
8	480	32.070530129795	22
8	514	33.070530129795	23
8	533	35.070530129795	24
8	726	47.070530129795	25
8	745	49.070530129795	26
8	759	50.070530129795	27
8	793	51.070530129795	28
8	812	53.070530129795	29
8	826	54.570530129795	30
8	856	55.070530129795	31
8	878	57.070530129795	32
8	897	59.070530129795	33
8	898	59.070530129795	34
8	942	61.070530129795	35
8	960	63.070530129795	36
8	968	63.570530129795	37
8	1006	65.070530129795	38
8	1024	67.070530129795	39
8	1038	68.070530129795	40
8	1087	72.249612896087	41
8	1092	72.321064422206	42
8	1112	74.321064422206	43
8	1143	76.321064422206	44
8	1154	76.821064422206	45
8	1203	78.321064422206	46
8	1222	80.321064422206	47
8	1236	81.321064422206	48
8	1278	82.321064422206	49
8	1297	84.321064422206	50
8	1311	85.821064422206	51
8	1338	86.321064422206	52
8	1370	88.321064422206	53
8	1390	90.321064422206	54
8	1391	90.321064422206	55
8	1445	92.321064422206	56
8	1464	94.321064422206	57
8	1473	94.821064422206	58
8	1520	96.321064422206	59
8	1539	98.321064422206	60
8	1553	99.321064422206	61
9	1087	72.249612896087	3
10	80	7.087261171032	4
10	117	9.087261171032	5
10	127	9.587261171032	6
10	166	11.087261171032	7
10	185	13.087261171032	8
10	199	14.087261171032	9
10	233	15.087261171032	10
10	252	17.087261171032	11
10	266	18.587261171032	12
10	296	19.087261171032	13
10	319	21.087261171032	14
10	340	23.087261171032	15
10	341	23.087261171032	16
10	384	25.087261171032	17
10	402	27.087261171032	18
10	410	27.587261171032	19
10	448	29.087261171032	20
10	467	31.087261171032	21
10	481	32.087261171032	22
10	515	33.087261171032	23
10	534	35.087261171032	24
10	548	36.587261171032	25
10	576	37.087261171032	26
10	599	39.087261171032	27
10	619	41.087261171032	28
10	620	41.087261171032	29
10	663	43.087261171032	30
10	681	45.087261171032	31
10	689	45.587261171032	32
10	727	47.087261171032	33
10	746	49.087261171032	34
10	760	50.087261171032	35
10	794	51.087261171032	36
10	813	53.087261171032	37
10	827	54.587261171032	38
10	857	55.087261171032	39
10	879	57.087261171032	40
10	899	59.087261171032	41
10	900	59.087261171032	42
10	943	61.087261171032	43
10	961	63.087261171032	44
10	969	63.587261171032	45
10	1007	65.087261171032	46
10	1025	67.087261171032	47
10	1039	68.087261171032	48
10	1093	72.328882799269	49
10	1098	72.400334325388	50
10	1117	74.400334325388	51
10	1148	76.400334325388	52
10	1161	76.900334325388	53
10	1208	78.400334325388	54
10	1227	80.400334325388	55
10	1241	81.400334325388	56
10	1283	82.400334325388	57
10	1302	84.400334325388	58
10	1315	85.900334325388	59
10	1349	86.400334325388	60
10	1375	88.400334325388	61
10	1400	90.400334325388	62
10	1401	90.400334325388	63
10	1450	92.400334325388	64
10	1469	94.400334325388	65
10	1478	94.900334325388	66
10	1525	96.400334325388	67
10	1544	98.400334325388	68
10	1558	99.400334325388	69
11	80	7.087261171032	4
11	117	9.087261171032	5
11	127	9.587261171032	6
11	166	11.087261171032	7
11	185	13.087261171032	8
11	199	14.087261171032	9
11	233	15.087261171032	10
11	252	17.087261171032	11
11	266	18.587261171032	12
11	296	19.087261171032	13
11	319	21.087261171032	14
11	340	23.087261171032	15
11	341	23.087261171032	16
11	384	25.087261171032	17
11	402	27.087261171032	18
11	410	27.587261171032	19
11	448	29.087261171032	20
11	467	31.087261171032	21
11	481	32.087261171032	22
11	515	33.087261171032	23
11	534	35.087261171032	24
11	548	36.587261171032	25
11	576	37.087261171032	26
11	599	39.087261171032	27
11	619	41.087261171032	28
11	620	41.087261171032	29
11	663	43.087261171032	30
11	681	45.087261171032	31
11	689	45.587261171032	32
11	727	47.087261171032	33
11	746	49.087261171032	34
11	760	50.087261171032	35
11	794	51.087261171032	36
11	813	53.087261171032	37
11	827	54.587261171032	38
11	1025	67.087261171032	39
11	1039	68.087261171032	40
11	1093	72.328882799269	41
11	1098	72.400334325388	42
11	1117	74.400334325388	43
11	1148	76.400334325388	44
11	1161	76.900334325388	45
11	1208	78.400334325388	46
11	1227	80.400334325388	47
11	1241	81.400334325388	48
11	1283	82.400334325388	49
11	1302	84.400334325388	50
11	1315	85.900334325388	51
11	1349	86.400334325388	52
11	1375	88.400334325388	53
11	1400	90.400334325388	54
11	1401	90.400334325388	55
11	1450	92.400334325388	56
11	1469	94.400334325388	57
11	1478	94.900334325388	58
11	1525	96.400334325388	59
11	1544	98.400334325388	60
11	1558	99.400334325388	61
12	1093	72.328882799269	3
13	87	7.199042840029	7
13	123	9.199042840029	8
13	137	9.699042840029	9
13	171	11.199042840029	10
13	190	13.199042840029	11
13	209	14.199042840029	12
13	238	15.199042840029	13
13	257	17.199042840029	14
13	276	18.699042840029	15
13	305	19.199042840029	16
13	324	21.199042840029	17
13	353	23.199042840029	18
13	354	23.199042840029	19
13	388	25.199042840029	20
13	406	27.199042840029	21
13	419	27.699042840029	22
13	453	29.199042840029	23
13	472	31.199042840029	24
13	491	32.199042840029	25
13	520	33.199042840029	26
13	539	35.199042840029	27
13	552	36.699042840029	28
13	585	37.199042840029	29
13	603	39.199042840029	30
13	627	41.199042840029	31
13	628	41.199042840029	32
13	667	43.199042840029	33
13	685	45.199042840029	34
13	693	45.699042840029	35
13	732	47.199042840029	36
13	751	49.199042840029	37
13	770	50.199042840029	38
13	799	51.199042840029	39
13	818	53.199042840029	40
13	837	54.699042840029	41
13	865	55.199042840029	42
13	883	57.199042840029	43
13	907	59.199042840029	44
13	908	59.199042840029	45
13	947	61.199042840029	46
13	965	63.199042840029	47
13	973	63.699042840029	48
13	1011	65.199042840029	49
13	1030	67.199042840029	50
13	1049	68.199042840029	51
13	1086	72.248224414706	52
13	1086	72.248224414706	53
13	1086	72.248224414706	54
13	1086	72.248224414706	55
13	1091	72.319675940825	56
13	1091	72.319675940825	57
13	1091	72.319675940825	58
13	1091	72.319675940825	59
13	1111	74.319675940825	60
13	1111	74.319675940825	61
13	1111	74.319675940825	62
13	1111	74.319675940825	63
13	1142	76.319675940825	64
13	1142	76.319675940825	65
13	1142	76.319675940825	66
13	1142	76.319675940825	67
13	1153	76.819675940825	68
13	1153	76.819675940825	69
13	1153	76.819675940825	70
13	1153	76.819675940825	71
13	1160	76.891127466944	72
13	1160	76.891127466944	73
13	1160	76.891127466944	74
13	1160	76.891127466944	75
13	1160	76.891127466944	76
13	1160	76.891127466944	77
13	1202	78.319675940825	78
13	1202	78.319675940825	79
13	1202	78.319675940825	80
13	1202	78.319675940825	81
13	1221	80.319675940825	82
13	1221	80.319675940825	83
13	1221	80.319675940825	84
13	1221	80.319675940825	85
13	1235	81.319675940825	86
13	1235	81.319675940825	87
13	1235	81.319675940825	88
13	1235	81.319675940825	89
13	1240	81.391127466944	90
13	1240	81.391127466944	91
13	1240	81.391127466944	92
13	1240	81.391127466944	93
13	1240	81.391127466944	94
13	1240	81.391127466944	95
13	1240	81.391127466944	96
13	1277	82.319675940825	97
13	1277	82.319675940825	98
13	1277	82.319675940825	99
13	1277	82.319675940825	100
13	1296	84.319675940825	101
13	1296	84.319675940825	102
13	1296	84.319675940825	103
13	1296	84.319675940825	104
13	1310	85.819675940825	105
13	1310	85.819675940825	106
13	1310	85.819675940825	107
13	1310	85.819675940825	108
13	1316	85.970663532233	109
13	1316	85.970663532233	110
13	1316	85.970663532233	111
13	1316	85.970663532233	112
13	1316	85.970663532233	113
13	1316	85.970663532233	114
13	1316	85.970663532233	115
13	1337	86.319675940825	116
13	1337	86.319675940825	117
13	1337	86.319675940825	118
13	1337	86.319675940825	119
13	1369	88.319675940825	120
13	1369	88.319675940825	121
13	1369	88.319675940825	122
13	1369	88.319675940825	123
13	1388	90.319675940825	124
13	1388	90.319675940825	125
13	1388	90.319675940825	126
13	1388	90.319675940825	127
13	1389	90.319675940825	128
13	1389	90.319675940825	129
13	1389	90.319675940825	130
13	1389	90.319675940825	131
13	1398	90.391127466944	132
13	1398	90.391127466944	133
13	1398	90.391127466944	134
13	1398	90.391127466944	135
13	1398	90.391127466944	136
13	1398	90.391127466944	137
13	1398	90.391127466944	138
13	1444	92.319675940825	139
13	1444	92.319675940825	140
13	1444	92.319675940825	141
13	1444	92.319675940825	142
13	1463	94.319675940825	143
13	1463	94.319675940825	144
13	1463	94.319675940825	145
13	1463	94.319675940825	146
13	1472	94.819675940825	147
13	1472	94.819675940825	148
13	1472	94.819675940825	149
13	1472	94.819675940825	150
13	1477	94.891127466944	151
13	1477	94.891127466944	152
13	1477	94.891127466944	153
13	1477	94.891127466944	154
13	1477	94.891127466944	155
13	1477	94.891127466944	156
13	1477	94.891127466944	157
13	1519	96.319675940825	158
13	1519	96.319675940825	159
13	1519	96.319675940825	160
13	1519	96.319675940825	161
13	1538	98.319675940825	162
13	1538	98.319675940825	163
13	1538	98.319675940825	164
13	1538	98.319675940825	165
13	1552	99.319675940825	166
13	1552	99.319675940825	167
13	1552	99.319675940825	168
13	1552	99.319675940825	169
13	1557	99.391127466944	170
13	1557	99.391127466944	171
13	1557	99.391127466944	172
13	1557	99.391127466944	173
13	1557	99.391127466944	174
13	1557	99.391127466944	175
13	1557	99.391127466944	176
14	1086	72.248224414706	5
14	1086	72.248224414706	6
14	1086	72.248224414706	7
14	1086	72.248224414706	8
15	51	5.210081500873	9
15	81	7.094824816916	10
15	82	7.107704614329	11
15	85	7.152820838016	12
15	86	7.165667340729	13
15	88	7.210081500873	14
15	90	7.236845461375	15
15	91	7.424437982654	16
15	107	8.946878788148	17
15	118	9.094824816916	18
15	119	9.107704614329	19
15	121	9.152820838016	20
15	122	9.153845093486	21
15	124	9.210081500873	22
15	128	9.594824816916	23
15	129	9.607704614329	24
15	131	9.652820838016	25
15	138	9.710081500873	26
15	154	10.064438400906	27
15	155	10.099876728189	28
15	156	10.129660473523	29
15	157	10.131978796394	30
15	158	10.147485939174	31
15	167	11.094824816916	32
15	168	11.107704614329	33
15	170	11.152820838016	34
15	172	11.210081500873	35
15	186	13.094824816916	36
15	187	13.107704614329	37
15	189	13.152820838016	38
15	191	13.210081500873	39
15	200	14.094824816916	40
15	201	14.107704614329	41
15	203	14.152820838016	42
15	210	14.210081500873	43
15	221	14.564438400906	44
15	222	14.599876728189	45
15	223	14.629660473523	46
15	224	14.631978796394	47
15	225	14.647485939174	48
15	234	15.094824816916	49
15	235	15.107704614329	50
15	237	15.152820838016	51
15	239	15.210081500873	52
15	253	17.094824816916	53
15	254	17.107704614329	54
15	256	17.152820838016	55
15	258	17.210081500873	56
15	267	18.594824816916	57
15	268	18.607704614329	58
15	270	18.652820838016	59
15	277	18.710081500873	60
15	294	19.064438400906	61
15	297	19.094824816916	62
15	298	19.099876728189	63
15	299	19.107704614329	64
15	301	19.129660473523	65
15	302	19.131978796394	66
15	303	19.147485939174	67
15	304	19.152820838016	68
15	306	19.210081500873	69
15	320	21.094824816916	70
15	321	21.107704614329	71
15	323	21.152820838016	72
15	325	21.210081500873	73
15	342	23.094824816916	74
15	343	23.094824816916	75
15	344	23.107704614329	76
15	345	23.107704614329	77
15	355	23.210081500873	78
15	356	23.210081500873	79
15	367	23.564438400906	80
15	368	23.599876728189	81
15	369	23.629660473523	82
15	370	23.631978796394	83
15	371	23.647485939174	84
15	385	25.094824816916	85
15	386	25.107704614329	86
15	389	25.210081500873	87
15	403	27.094824816916	88
15	404	27.107704614329	89
15	407	27.210081500873	90
15	411	27.594824816916	91
15	412	27.607704614329	92
15	420	27.710081500873	93
15	436	28.064438400906	94
15	437	28.099876728189	95
15	438	28.129660473523	96
15	439	28.131978796394	97
15	440	28.147485939174	98
15	449	29.094824816916	99
15	450	29.107704614329	100
15	452	29.152820838016	101
15	454	29.210081500873	102
15	468	31.094824816916	103
15	469	31.107704614329	104
15	471	31.152820838016	105
15	473	31.210081500873	106
15	482	32.094824816916	107
15	483	32.107704614329	108
15	485	32.152820838016	109
15	492	32.210081500873	110
15	503	32.564438400906	111
15	504	32.599876728189	112
15	505	32.629660473523	113
15	506	32.631978796394	114
15	507	32.647485939174	115
15	516	33.094824816916	116
15	517	33.107704614329	117
15	519	33.152820838016	118
15	521	33.210081500873	119
15	535	35.094824816916	120
15	536	35.107704614329	121
15	538	35.152820838016	122
15	540	35.210081500873	123
15	549	36.594824816916	124
15	551	36.652820838016	125
15	553	36.710081500873	126
15	577	37.094824816916	127
15	578	37.109554624593	128
15	580	37.144992951876	129
15	581	37.152820838016	130
15	582	37.17477669721	131
15	583	37.177095020081	132
15	584	37.192602162861	133
15	586	37.210081500873	134
15	600	39.094824816916	135
15	602	39.152820838016	136
15	604	39.210081500873	137
15	621	41.094824816916	138
15	622	41.094824816916	139
15	625	41.152820838016	140
15	626	41.152820838016	141
15	629	41.210081500873	142
15	630	41.210081500873	143
15	646	41.609554624593	144
15	647	41.644992951876	145
15	648	41.67477669721	146
15	649	41.677095020081	147
15	650	41.692602162861	148
15	664	43.094824816916	149
15	666	43.152820838016	150
15	668	43.210081500873	151
15	682	45.094824816916	152
15	684	45.152820838016	153
15	686	45.210081500873	154
15	690	45.594824816916	155
15	692	45.652820838016	156
15	694	45.710081500873	157
15	715	46.109554624593	158
15	716	46.144992951876	159
15	717	46.17477669721	160
15	718	46.177095020081	161
15	719	46.192602162861	162
15	728	47.094824816916	163
15	729	47.107704614329	164
15	731	47.152820838016	165
15	733	47.210081500873	166
15	747	49.094824816916	167
15	748	49.107704614329	168
15	750	49.152820838016	169
15	752	49.210081500873	170
15	761	50.094824816916	171
15	762	50.107704614329	172
15	764	50.152820838016	173
15	771	50.210081500873	174
15	782	50.564438400906	175
15	783	50.599876728189	176
15	784	50.629660473523	177
15	785	50.631978796394	178
15	786	50.647485939174	179
15	795	51.094824816916	180
15	796	51.107704614329	181
15	798	51.152820838016	182
15	800	51.210081500873	183
15	814	53.094824816916	184
15	815	53.107704614329	185
15	817	53.152820838016	186
15	819	53.210081500873	187
15	828	54.594824816916	188
15	829	54.607704614329	189
15	831	54.652820838016	190
15	838	54.710081500873	191
15	855	55.064438400906	192
15	858	55.099876728189	193
15	859	55.107704614329	194
15	861	55.129660473523	195
15	862	55.131978796394	196
15	863	55.147485939174	197
15	864	55.152820838016	198
15	866	55.210081500873	199
15	880	57.107704614329	200
15	882	57.152820838016	201
15	884	57.210081500873	202
15	901	59.107704614329	203
15	902	59.107704614329	204
15	905	59.152820838016	205
15	906	59.152820838016	206
15	909	59.210081500873	207
15	910	59.210081500873	208
15	926	59.609554624593	209
15	927	59.644992951876	210
15	928	59.67477669721	211
15	929	59.677095020081	212
15	930	59.692602162861	213
15	944	61.107704614329	214
15	946	61.152820838016	215
15	948	61.210081500873	216
15	962	63.107704614329	217
15	964	63.152820838016	218
15	966	63.210081500873	219
15	970	63.607704614329	220
15	972	63.652820838016	221
15	974	63.710081500873	222
15	995	64.109554624593	223
15	996	64.144992951876	224
15	997	64.17477669721	225
15	998	64.177095020081	226
15	999	64.192602162861	227
15	1008	65.107704614329	228
15	1010	65.152820838016	229
15	1012	65.210081500873	230
15	1026	67.094824816916	231
15	1027	67.107704614329	232
15	1029	67.152820838016	233
15	1031	67.210081500873	234
15	1040	68.094824816916	235
15	1041	68.107704614329	236
15	1043	68.152820838016	237
15	1050	68.210081500873	238
15	1061	68.564438400906	239
15	1062	68.599876728189	240
15	1063	68.629660473523	241
15	1064	68.631978796394	242
15	1065	68.647485939174	243
15	1088	72.25926307555	244
15	1094	72.330714601669	245
15	1113	74.330714601669	246
15	1124	74.895719811566	247
15	1132	75.106256990054	248
15	1144	76.330714601669	249
15	1152	76.661532154931	250
15	1155	76.830714601669	251
15	1204	78.330714601669	252
15	1223	80.330714601669	253
15	1237	81.330714601669	254
15	1279	82.330714601669	255
15	1298	84.330714601669	256
15	1312	85.830714601669	257
15	1340	86.330714601669	258
15	1371	88.330714601669	259
15	1392	90.330714601669	260
15	1393	90.330714601669	261
15	1446	92.330714601669	262
15	1465	94.330714601669	263
15	1474	94.830714601669	264
15	1521	96.330714601669	265
15	1540	98.330714601669	266
15	1554	99.330714601669	267
16	78	7.059093909465	5
16	78	7.059093909465	6
16	78	7.059093909465	7
16	78	7.059093909465	8
16	115	9.059093909465	9
16	115	9.059093909465	10
16	115	9.059093909465	11
16	115	9.059093909465	12
16	125	9.559093909465	13
16	125	9.559093909465	14
16	125	9.559093909465	15
16	125	9.559093909465	16
16	164	11.059093909465	17
16	164	11.059093909465	18
16	164	11.059093909465	19
16	164	11.059093909465	20
16	183	13.059093909465	21
16	183	13.059093909465	22
16	183	13.059093909465	23
16	183	13.059093909465	24
16	197	14.059093909465	25
16	197	14.059093909465	26
16	197	14.059093909465	27
16	197	14.059093909465	28
16	231	15.059093909465	29
16	231	15.059093909465	30
16	231	15.059093909465	31
16	231	15.059093909465	32
16	250	17.059093909465	33
16	250	17.059093909465	34
16	250	17.059093909465	35
16	250	17.059093909465	36
16	264	18.559093909465	37
16	264	18.559093909465	38
16	264	18.559093909465	39
16	264	18.559093909465	40
16	293	19.059093909465	41
16	293	19.059093909465	42
16	293	19.059093909465	43
16	293	19.059093909465	44
16	317	21.059093909465	45
16	317	21.059093909465	46
16	317	21.059093909465	47
16	317	21.059093909465	48
16	336	23.059093909465	49
16	336	23.059093909465	50
16	336	23.059093909465	51
16	336	23.059093909465	52
16	337	23.059093909465	53
16	337	23.059093909465	54
16	337	23.059093909465	55
16	337	23.059093909465	56
16	382	25.059093909465	57
16	382	25.059093909465	58
16	382	25.059093909465	59
16	382	25.059093909465	60
16	400	27.059093909465	61
16	400	27.059093909465	62
16	400	27.059093909465	63
16	400	27.059093909465	64
16	408	27.559093909465	65
16	408	27.559093909465	66
16	408	27.559093909465	67
16	408	27.559093909465	68
16	446	29.059093909465	69
16	446	29.059093909465	70
16	446	29.059093909465	71
16	446	29.059093909465	72
16	465	31.059093909465	73
16	465	31.059093909465	74
16	465	31.059093909465	75
16	465	31.059093909465	76
16	479	32.059093909465	77
16	479	32.059093909465	78
16	479	32.059093909465	79
16	479	32.059093909465	80
16	513	33.059093909465	81
16	513	33.059093909465	82
16	513	33.059093909465	83
16	513	33.059093909465	84
16	532	35.059093909465	85
16	532	35.059093909465	86
16	532	35.059093909465	87
16	532	35.059093909465	88
16	546	36.559093909465	89
16	546	36.559093909465	90
16	546	36.559093909465	91
16	546	36.559093909465	92
16	574	37.059093909465	93
16	574	37.059093909465	94
16	574	37.059093909465	95
16	574	37.059093909465	96
16	597	39.059093909465	97
16	597	39.059093909465	98
16	597	39.059093909465	99
16	597	39.059093909465	100
16	615	41.059093909465	101
16	615	41.059093909465	102
16	615	41.059093909465	103
16	615	41.059093909465	104
16	616	41.059093909465	105
16	616	41.059093909465	106
16	616	41.059093909465	107
16	616	41.059093909465	108
16	661	43.059093909465	109
16	661	43.059093909465	110
16	661	43.059093909465	111
16	661	43.059093909465	112
16	679	45.059093909465	113
16	679	45.059093909465	114
16	679	45.059093909465	115
16	679	45.059093909465	116
16	687	45.559093909465	117
16	687	45.559093909465	118
16	687	45.559093909465	119
16	687	45.559093909465	120
16	725	47.059093909465	121
16	725	47.059093909465	122
16	725	47.059093909465	123
16	725	47.059093909465	124
16	744	49.059093909465	125
16	744	49.059093909465	126
16	744	49.059093909465	127
16	744	49.059093909465	128
16	758	50.059093909465	129
16	758	50.059093909465	130
16	758	50.059093909465	131
16	758	50.059093909465	132
16	792	51.059093909465	133
16	792	51.059093909465	134
16	792	51.059093909465	135
16	792	51.059093909465	136
16	811	53.059093909465	137
16	811	53.059093909465	138
16	811	53.059093909465	139
16	811	53.059093909465	140
16	825	54.559093909465	141
16	825	54.559093909465	142
16	825	54.559093909465	143
16	825	54.559093909465	144
16	854	55.059093909465	145
16	854	55.059093909465	146
16	854	55.059093909465	147
16	854	55.059093909465	148
16	877	57.059093909465	149
16	877	57.059093909465	150
16	877	57.059093909465	151
16	877	57.059093909465	152
16	895	59.059093909465	153
16	895	59.059093909465	154
16	895	59.059093909465	155
16	895	59.059093909465	156
16	896	59.059093909465	157
16	896	59.059093909465	158
16	896	59.059093909465	159
16	896	59.059093909465	160
16	941	61.059093909465	161
16	941	61.059093909465	162
16	941	61.059093909465	163
16	941	61.059093909465	164
16	959	63.059093909465	165
16	959	63.059093909465	166
16	959	63.059093909465	167
16	959	63.059093909465	168
16	967	63.559093909465	169
16	967	63.559093909465	170
16	967	63.559093909465	171
16	967	63.559093909465	172
16	1005	65.059093909465	173
16	1005	65.059093909465	174
16	1005	65.059093909465	175
16	1005	65.059093909465	176
16	1023	67.059093909465	177
16	1023	67.059093909465	178
16	1023	67.059093909465	179
16	1023	67.059093909465	180
16	1037	68.059093909465	181
16	1037	68.059093909465	182
16	1037	68.059093909465	183
16	1037	68.059093909465	184
17	129	9.607704614329	2
17	129	9.607704614329	3
17	129	9.607704614329	4
17	129	9.607704614329	5
17	129	9.607704614329	6
17	201	14.107704614329	7
17	201	14.107704614329	8
17	201	14.107704614329	9
17	201	14.107704614329	10
17	201	14.107704614329	11
17	268	18.607704614329	12
17	268	18.607704614329	13
17	268	18.607704614329	14
17	268	18.607704614329	15
17	268	18.607704614329	16
17	344	23.107704614329	17
17	344	23.107704614329	18
17	344	23.107704614329	19
17	344	23.107704614329	20
17	344	23.107704614329	21
17	412	27.607704614329	22
17	412	27.607704614329	23
17	412	27.607704614329	24
17	412	27.607704614329	25
17	412	27.607704614329	26
17	483	32.107704614329	27
17	483	32.107704614329	28
17	483	32.107704614329	29
17	483	32.107704614329	30
17	483	32.107704614329	31
17	551	36.652820838016	32
17	551	36.652820838016	33
17	551	36.652820838016	34
17	551	36.652820838016	35
17	551	36.652820838016	36
17	625	41.152820838016	37
17	625	41.152820838016	38
17	625	41.152820838016	39
17	625	41.152820838016	40
17	625	41.152820838016	41
17	692	45.652820838016	42
17	692	45.652820838016	43
17	692	45.652820838016	44
17	692	45.652820838016	45
17	692	45.652820838016	46
17	762	50.107704614329	47
17	762	50.107704614329	48
17	762	50.107704614329	49
17	762	50.107704614329	50
17	762	50.107704614329	51
17	829	54.607704614329	52
17	829	54.607704614329	53
17	829	54.607704614329	54
17	829	54.607704614329	55
17	829	54.607704614329	56
17	905	59.152820838016	57
17	905	59.152820838016	58
17	905	59.152820838016	59
17	905	59.152820838016	60
17	905	59.152820838016	61
17	972	63.652820838016	62
17	972	63.652820838016	63
17	972	63.652820838016	64
17	972	63.652820838016	65
17	972	63.652820838016	66
17	1041	68.107704614329	67
17	1041	68.107704614329	68
17	1041	68.107704614329	69
17	1041	68.107704614329	70
17	1041	68.107704614329	71
18	49	5.200169166085	5
18	50	5.20518159669	6
18	67	6.846596182255	7
18	87	7.199042840029	8
18	101	8.401139055954	9
18	123	9.199042840029	10
18	137	9.699042840029	11
18	171	11.199042840029	12
18	190	13.199042840029	13
18	209	14.199042840029	14
18	238	15.199042840029	15
18	257	17.199042840029	16
18	276	18.699042840029	17
18	305	19.199042840029	18
18	324	21.199042840029	19
18	353	23.199042840029	20
18	354	23.199042840029	21
18	388	25.199042840029	22
18	406	27.199042840029	23
18	419	27.699042840029	24
18	453	29.199042840029	25
18	472	31.199042840029	26
18	491	32.199042840029	27
18	520	33.199042840029	28
18	539	35.199042840029	29
18	552	36.699042840029	30
18	585	37.199042840029	31
18	603	39.199042840029	32
18	627	41.199042840029	33
18	628	41.199042840029	34
18	667	43.199042840029	35
18	685	45.199042840029	36
18	693	45.699042840029	37
18	732	47.199042840029	38
18	751	49.199042840029	39
18	770	50.199042840029	40
18	799	51.199042840029	41
18	818	53.199042840029	42
18	837	54.699042840029	43
18	865	55.199042840029	44
18	883	57.199042840029	45
18	907	59.199042840029	46
18	908	59.199042840029	47
18	947	61.199042840029	48
18	965	63.199042840029	49
18	973	63.699042840029	50
18	1011	65.199042840029	51
18	1030	67.199042840029	52
18	1049	68.199042840029	53
18	1089	72.262653688584	54
18	1091	72.319675940825	55
18	1095	72.334105214703	56
18	1097	72.391127466944	57
18	1099	72.404224436719	58
18	1100	72.475675962838	59
18	1114	74.334105214703	60
18	1116	74.391127466944	61
18	1118	74.475675962838	62
18	1136	75.620714160342	63
18	1145	76.334105214703	64
18	1147	76.391127466944	65
18	1151	76.475675962838	66
18	1156	76.834105214703	67
18	1160	76.891127466944	68
18	1162	76.975675962838	69
18	1188	77.496690733753	70
18	1189	77.496690733753	71
18	1190	77.532129061036	72
18	1193	77.56191280637	73
18	1194	77.564231129241	74
18	1195	77.579738272021	75
18	1196	77.840308013726	76
18	1205	78.334105214703	77
18	1207	78.391127466944	78
18	1209	78.470663532233	79
18	1210	78.475675962838	80
18	1224	80.334105214703	81
18	1226	80.391127466944	82
18	1228	80.470663532233	83
18	1229	80.475675962838	84
18	1238	81.334105214703	85
18	1240	81.391127466944	86
18	1242	81.470663532233	87
18	1243	81.475675962838	88
18	1265	81.996690733753	89
18	1266	81.996690733753	90
18	1272	82.032129061036	91
18	1273	82.06191280637	92
18	1274	82.064231129241	93
18	1275	82.079738272021	94
18	1276	82.079738272021	95
18	1280	82.334105214703	96
18	1282	82.391127466944	97
18	1284	82.470663532233	98
18	1285	82.475675962838	99
18	1299	84.334105214703	100
18	1301	84.391127466944	101
18	1303	84.470663532233	102
18	1304	84.475675962838	103
18	1313	85.834105214703	104
18	1316	85.970663532233	105
18	1317	85.975675962838	106
18	1341	86.334105214703	107
18	1350	86.470663532233	108
18	1351	86.475675962838	109
18	1352	86.576226799042	110
18	1353	86.576226799042	111
18	1354	86.611665126325	112
18	1355	86.641448871659	113
18	1356	86.64376719453	114
18	1357	86.65927433731	115
18	1358	86.65927433731	116
18	1372	88.334105214703	117
18	1374	88.391127466944	118
18	1376	88.470663532233	119
18	1377	88.475675962838	120
18	1394	90.334105214703	121
18	1395	90.334105214703	122
18	1398	90.391127466944	123
18	1399	90.391127466944	124
18	1402	90.470663532233	125
18	1403	90.470663532233	126
18	1404	90.475675962838	127
18	1405	90.475675962838	128
18	1427	90.996690733753	129
18	1428	90.996690733753	130
18	1434	91.032129061036	131
18	1435	91.06191280637	132
18	1436	91.064231129241	133
18	1437	91.079738272021	134
18	1438	91.079738272021	135
18	1447	92.334105214703	136
18	1449	92.391127466944	137
18	1451	92.470663532233	138
18	1452	92.475675962838	139
18	1466	94.334105214703	140
18	1468	94.391127466944	141
18	1470	94.470663532233	142
18	1471	94.475675962838	143
18	1475	94.834105214703	144
18	1477	94.891127466944	145
18	1479	94.970663532233	146
18	1480	94.975675962838	147
18	1507	95.496690733753	148
18	1508	95.496690733753	149
18	1509	95.532129061036	150
18	1510	95.56191280637	151
18	1511	95.564231129241	152
18	1512	95.579738272021	153
18	1513	95.579738272021	154
18	1522	96.334105214703	155
18	1524	96.391127466944	156
18	1526	96.470663532233	157
18	1527	96.475675962838	158
18	1541	98.334105214703	159
18	1543	98.391127466944	160
18	1545	98.470663532233	161
18	1546	98.475675962838	162
18	1555	99.334105214703	163
18	1557	99.391127466944	164
18	1559	99.470663532233	165
18	1560	99.475675962838	166
18	1582	99.996690733753	167
18	1583	99.996690733753	168
19	83	7.114597925393	4
19	103	8.654197012647	5
19	120	9.114597925393	6
19	130	9.614597925393	7
19	169	11.114597925393	8
19	188	13.114597925393	9
19	202	14.114597925393	10
19	236	15.114597925393	11
19	255	17.114597925393	12
19	269	18.614597925393	13
19	300	19.114597925393	14
19	322	21.114597925393	15
19	346	23.114597925393	16
19	347	23.114597925393	17
19	387	25.114597925393	18
19	405	27.114597925393	19
19	413	27.614597925393	20
19	451	29.114597925393	21
19	470	31.114597925393	22
19	484	32.114597925393	23
19	518	33.114597925393	24
19	537	35.114597925393	25
19	550	36.614597925393	26
19	579	37.114597925393	27
19	601	39.114597925393	28
19	623	41.114597925393	29
19	624	41.114597925393	30
19	665	43.114597925393	31
19	683	45.114597925393	32
19	691	45.614597925393	33
19	730	47.114597925393	34
19	749	49.114597925393	35
19	763	50.114597925393	36
19	797	51.114597925393	37
19	816	53.114597925393	38
19	830	54.614597925393	39
19	860	55.114597925393	40
19	881	57.114597925393	41
19	903	59.114597925393	42
19	904	59.114597925393	43
19	945	61.114597925393	44
19	963	63.114597925393	45
19	971	63.614597925393	46
19	1009	65.114597925393	47
19	1028	67.114597925393	48
19	1042	68.114597925393	49
19	1090	72.289124780275	50
19	1096	72.360576306394	51
19	1115	74.360576306394	52
19	1146	76.360576306394	53
19	1159	76.860576306394	54
19	1206	78.360576306394	55
19	1225	80.360576306394	56
19	1239	81.360576306394	57
19	1281	82.360576306394	58
19	1300	84.360576306394	59
19	1314	85.860576306394	60
19	1344	86.360576306394	61
19	1373	88.360576306394	62
19	1396	90.360576306394	63
19	1397	90.360576306394	64
19	1448	92.360576306394	65
19	1467	94.360576306394	66
19	1476	94.860576306394	67
19	1523	96.360576306394	68
19	1542	98.360576306394	69
19	1556	99.360576306394	70
20	83	7.114597925393	4
20	120	9.114597925393	5
20	130	9.614597925393	6
20	169	11.114597925393	7
20	188	13.114597925393	8
20	202	14.114597925393	9
20	236	15.114597925393	10
20	255	17.114597925393	11
20	269	18.614597925393	12
20	300	19.114597925393	13
20	322	21.114597925393	14
20	451	29.114597925393	15
20	470	31.114597925393	16
20	484	32.114597925393	17
20	518	33.114597925393	18
20	537	35.114597925393	19
20	550	36.614597925393	20
20	579	37.114597925393	21
20	601	39.114597925393	22
20	623	41.114597925393	23
20	624	41.114597925393	24
20	665	43.114597925393	25
20	683	45.114597925393	26
20	691	45.614597925393	27
20	730	47.114597925393	28
20	749	49.114597925393	29
20	763	50.114597925393	30
20	797	51.114597925393	31
20	816	53.114597925393	32
20	830	54.614597925393	33
20	860	55.114597925393	34
20	881	57.114597925393	35
20	903	59.114597925393	36
20	904	59.114597925393	37
20	945	61.114597925393	38
20	963	63.114597925393	39
20	971	63.614597925393	40
20	1009	65.114597925393	41
20	1028	67.114597925393	42
20	1042	68.114597925393	43
20	1090	72.289124780275	44
20	1096	72.360576306394	45
20	1115	74.360576306394	46
20	1146	76.360576306394	47
20	1159	76.860576306394	48
20	1206	78.360576306394	49
20	1225	80.360576306394	50
20	1239	81.360576306394	51
20	1281	82.360576306394	52
20	1300	84.360576306394	53
20	1373	88.360576306394	54
20	1396	90.360576306394	55
20	1397	90.360576306394	56
20	1448	92.360576306394	57
20	1467	94.360576306394	58
20	1476	94.860576306394	59
20	1523	96.360576306394	60
20	1542	98.360576306394	61
20	1556	99.360576306394	62
21	1090	72.289124780275	3
22	79	7.070530129795	2
22	116	9.070530129795	3
22	126	9.570530129795	4
22	165	11.070530129795	5
22	184	13.070530129795	6
22	198	14.070530129795	7
22	232	15.070530129795	8
22	251	17.070530129795	9
22	265	18.570530129795	10
22	295	19.070530129795	11
22	318	21.070530129795	12
22	338	23.070530129795	13
22	339	23.070530129795	14
22	383	25.070530129795	15
22	401	27.070530129795	16
22	409	27.570530129795	17
22	447	29.070530129795	18
22	466	31.070530129795	19
22	480	32.070530129795	20
22	514	33.070530129795	21
22	533	35.070530129795	22
22	726	47.070530129795	23
22	745	49.070530129795	24
22	759	50.070530129795	25
22	793	51.070530129795	26
22	812	53.070530129795	27
22	826	54.570530129795	28
22	856	55.070530129795	29
22	878	57.070530129795	30
22	897	59.070530129795	31
22	898	59.070530129795	32
22	942	61.070530129795	33
22	960	63.070530129795	34
22	968	63.570530129795	35
22	1006	65.070530129795	36
22	1024	67.070530129795	37
22	1038	68.070530129795	38
22	1092	72.321064422206	39
22	1112	74.321064422206	40
22	1143	76.321064422206	41
22	1154	76.821064422206	42
22	1203	78.321064422206	43
22	1222	80.321064422206	44
22	1236	81.321064422206	45
22	1278	82.321064422206	46
22	1297	84.321064422206	47
22	1311	85.821064422206	48
22	1338	86.321064422206	49
22	1370	88.321064422206	50
22	1390	90.321064422206	51
22	1391	90.321064422206	52
22	1445	92.321064422206	53
22	1464	94.321064422206	54
22	1473	94.821064422206	55
22	1520	96.321064422206	56
22	1539	98.321064422206	57
22	1553	99.321064422206	58
23	80	7.087261171032	2
23	117	9.087261171032	3
23	127	9.587261171032	4
23	166	11.087261171032	5
23	185	13.087261171032	6
23	199	14.087261171032	7
23	233	15.087261171032	8
23	252	17.087261171032	9
23	266	18.587261171032	10
23	296	19.087261171032	11
23	319	21.087261171032	12
23	340	23.087261171032	13
23	341	23.087261171032	14
23	384	25.087261171032	15
23	402	27.087261171032	16
23	410	27.587261171032	17
23	448	29.087261171032	18
23	467	31.087261171032	19
23	481	32.087261171032	20
23	515	33.087261171032	21
23	534	35.087261171032	22
23	548	36.587261171032	23
23	576	37.087261171032	24
23	599	39.087261171032	25
23	619	41.087261171032	26
23	620	41.087261171032	27
23	663	43.087261171032	28
23	681	45.087261171032	29
23	689	45.587261171032	30
23	727	47.087261171032	31
23	746	49.087261171032	32
23	760	50.087261171032	33
23	794	51.087261171032	34
23	813	53.087261171032	35
23	827	54.587261171032	36
23	1025	67.087261171032	37
23	1039	68.087261171032	38
23	1098	72.400334325388	39
23	1117	74.400334325388	40
23	1148	76.400334325388	41
23	1161	76.900334325388	42
23	1208	78.400334325388	43
23	1227	80.400334325388	44
23	1241	81.400334325388	45
23	1283	82.400334325388	46
23	1302	84.400334325388	47
23	1315	85.900334325388	48
23	1349	86.400334325388	49
23	1375	88.400334325388	50
23	1400	90.400334325388	51
23	1401	90.400334325388	52
23	1450	92.400334325388	53
23	1469	94.400334325388	54
23	1478	94.900334325388	55
23	1525	96.400334325388	56
23	1544	98.400334325388	57
23	1558	99.400334325388	58
24	83	7.114597925393	2
24	120	9.114597925393	3
24	130	9.614597925393	4
24	169	11.114597925393	5
24	188	13.114597925393	6
24	202	14.114597925393	7
24	236	15.114597925393	8
24	255	17.114597925393	9
24	269	18.614597925393	10
24	300	19.114597925393	11
24	322	21.114597925393	12
24	451	29.114597925393	13
24	470	31.114597925393	14
24	484	32.114597925393	15
24	518	33.114597925393	16
24	537	35.114597925393	17
24	550	36.614597925393	18
24	579	37.114597925393	19
24	601	39.114597925393	20
24	623	41.114597925393	21
24	624	41.114597925393	22
24	665	43.114597925393	23
24	683	45.114597925393	24
24	691	45.614597925393	25
24	730	47.114597925393	26
24	749	49.114597925393	27
24	763	50.114597925393	28
24	797	51.114597925393	29
24	816	53.114597925393	30
24	830	54.614597925393	31
24	860	55.114597925393	32
24	881	57.114597925393	33
24	903	59.114597925393	34
24	904	59.114597925393	35
24	945	61.114597925393	36
24	963	63.114597925393	37
24	971	63.614597925393	38
24	1009	65.114597925393	39
24	1028	67.114597925393	40
24	1042	68.114597925393	41
24	1096	72.360576306394	42
24	1115	74.360576306394	43
24	1146	76.360576306394	44
24	1159	76.860576306394	45
24	1206	78.360576306394	46
24	1225	80.360576306394	47
24	1239	81.360576306394	48
24	1281	82.360576306394	49
24	1300	84.360576306394	50
24	1373	88.360576306394	51
24	1396	90.360576306394	52
24	1397	90.360576306394	53
24	1448	92.360576306394	54
24	1467	94.360576306394	55
24	1476	94.860576306394	56
24	1523	96.360576306394	57
24	1542	98.360576306394	58
24	1556	99.360576306394	59
25	1160	76.891127466944	2
25	1160	76.891127466944	3
25	1160	76.891127466944	4
25	1160	76.891127466944	5
25	1160	76.891127466944	6
25	1160	76.891127466944	7
25	1240	81.391127466944	8
25	1240	81.391127466944	9
25	1240	81.391127466944	10
25	1240	81.391127466944	11
25	1240	81.391127466944	12
25	1240	81.391127466944	13
25	1240	81.391127466944	14
25	1316	85.970663532233	15
25	1316	85.970663532233	16
25	1316	85.970663532233	17
25	1316	85.970663532233	18
25	1316	85.970663532233	19
25	1316	85.970663532233	20
25	1316	85.970663532233	21
25	1398	90.391127466944	22
25	1398	90.391127466944	23
25	1398	90.391127466944	24
25	1398	90.391127466944	25
25	1398	90.391127466944	26
25	1398	90.391127466944	27
25	1398	90.391127466944	28
25	1477	94.891127466944	29
25	1477	94.891127466944	30
25	1477	94.891127466944	31
25	1477	94.891127466944	32
25	1477	94.891127466944	33
25	1477	94.891127466944	34
25	1477	94.891127466944	35
25	1557	99.391127466944	36
25	1557	99.391127466944	37
25	1557	99.391127466944	38
25	1557	99.391127466944	39
25	1557	99.391127466944	40
25	1557	99.391127466944	41
25	1557	99.391127466944	42
26	87	7.199042840029	2
26	123	9.199042840029	3
26	137	9.699042840029	4
26	171	11.199042840029	5
26	190	13.199042840029	6
26	209	14.199042840029	7
26	238	15.199042840029	8
26	257	17.199042840029	9
26	276	18.699042840029	10
26	305	19.199042840029	11
26	324	21.199042840029	12
26	353	23.199042840029	13
26	354	23.199042840029	14
26	388	25.199042840029	15
26	406	27.199042840029	16
26	419	27.699042840029	17
26	453	29.199042840029	18
26	472	31.199042840029	19
26	491	32.199042840029	20
26	520	33.199042840029	21
26	539	35.199042840029	22
26	552	36.699042840029	23
26	585	37.199042840029	24
26	603	39.199042840029	25
26	627	41.199042840029	26
26	628	41.199042840029	27
26	667	43.199042840029	28
26	685	45.199042840029	29
26	693	45.699042840029	30
26	732	47.199042840029	31
26	751	49.199042840029	32
26	770	50.199042840029	33
26	799	51.199042840029	34
26	818	53.199042840029	35
26	837	54.699042840029	36
26	865	55.199042840029	37
26	883	57.199042840029	38
26	907	59.199042840029	39
26	908	59.199042840029	40
26	947	61.199042840029	41
26	965	63.199042840029	42
26	973	63.699042840029	43
26	1011	65.199042840029	44
26	1030	67.199042840029	45
26	1049	68.199042840029	46
27	139	9.852470587225	3.586411249182
27	211	14.352470587225	4.5
27	278	18.852470587225	4.5
27	357	23.352470587225	4.5
27	421	27.852470587225	4.5
27	493	32.352470587225	4.5
27	559	36.897586810912	4.545116223687
27	636	41.397586810912	4.5
27	700	45.897586810912	4.5
27	772	50.352470587225	4.454883776313
27	839	54.852470587225	4.5
27	916	59.397586810912	4.545116223687
27	980	63.897586810912	4.5
27	1051	68.352470587225	4.454883776313
27	1251	81.689461058174	13.336990470949
27	1330	86.268997123463	4.579536065289
27	1413	90.689461058174	4.420463934711
27	1493	95.189461058174	4.5
27	1568	99.689461058174	4.5
28	140	9.854922669697	3.380644476037
28	212	14.354922669697	4.5
28	279	18.854922669697	4.5
28	358	23.354922669697	4.5
28	422	27.854922669697	4.5
28	494	32.354922669697	4.5
28	560	36.900038893384	4.545116223687
28	637	41.400038893384	4.5
28	701	45.900038893384	4.5
28	773	50.354922669697	4.454883776313
28	840	54.854922669697	4.5
28	917	59.400038893384	4.545116223687
28	981	63.900038893384	4.5
28	1052	68.354922669697	4.454883776313
28	1252	81.691913140646	13.336990470949
28	1331	86.271449205935	4.579536065289
28	1414	90.691913140646	4.420463934711
28	1494	95.191913140646	4.5
28	1569	99.691913140646	4.5
29	141	9.855654960875	1.793999534133
29	213	14.355654960875	4.5
29	280	18.855654960875	4.5
29	359	23.355654960875	4.5
29	423	27.855654960875	4.5
29	495	32.355654960875	4.5
29	561	36.900771184562	4.545116223687
29	638	41.400771184562	4.5
29	702	45.900771184562	4.5
29	774	50.355654960875	4.454883776313
29	841	54.855654960875	4.5
29	918	59.400771184562	4.545116223687
29	982	63.900771184562	4.5
29	1053	68.355654960875	4.454883776313
29	1253	81.692645431824	13.336990470949
29	1332	86.272181497113	4.579536065289
29	1415	90.692645431824	4.420463934711
29	1495	95.192645431824	4.5
29	1570	99.692645431824	4.5
30	142	9.859784957715	3.527145224594
30	214	14.359784957715	4.5
30	281	18.859784957715	4.5
30	360	23.359784957715	4.5
30	424	27.859784957715	4.5
30	496	32.359784957715	4.5
30	562	36.904901181402	4.545116223687
30	639	41.404901181402	4.5
30	703	45.904901181402	4.5
30	775	50.359784957715	4.454883776313
30	842	54.859784957715	4.5
30	919	59.404901181402	4.545116223687
30	983	63.904901181402	4.5
30	1054	68.359784957715	4.454883776313
30	1178	77.196775428664	8.836990470949
30	1179	77.196775428664	0
30	1254	81.696775428664	4.5
30	1255	81.696775428664	0
30	1333	86.276311493953	4.579536065289
30	1334	86.276311493953	0
30	1416	90.696775428664	4.420463934711
30	1417	90.696775428664	0
30	1496	95.196775428664	4.5
30	1497	95.196775428664	0
30	1571	99.696775428664	4.5
30	1572	99.696775428664	0
31	147	9.955723842499	1.56958533253
31	219	14.455723842499	4.5
31	286	18.955723842499	4.5
31	365	23.455723842499	4.5
31	429	27.955723842499	4.5
31	501	32.455723842499	4.5
31	572	37.000840066186	4.545116223687
31	644	41.500840066186	4.5
31	713	46.000840066186	4.5
31	780	50.455723842499	4.454883776313
31	847	54.955723842499	4.5
31	924	59.500840066186	4.545116223687
31	993	64.000840066186	4.5
31	1059	68.455723842499	4.454883776313
31	1191	77.553284055153	9.097560212654
31	1261	81.792714313448	4.239430258295
31	1262	81.792714313448	0
31	1345	86.372250378737	4.579536065289
31	1346	86.372250378737	0
31	1423	90.792714313448	4.420463934711
31	1424	90.792714313448	0
31	1503	95.292714313448	4.5
31	1504	95.292714313448	0
31	1578	99.792714313448	4.5
31	1579	99.792714313448	0
32	1091	72.319675940825	1
32	1091	72.319675940825	2
32	1091	72.319675940825	3
32	1091	72.319675940825	4
32	1111	74.319675940825	5
32	1111	74.319675940825	6
32	1111	74.319675940825	7
32	1111	74.319675940825	8
32	1142	76.319675940825	9
32	1142	76.319675940825	10
32	1142	76.319675940825	11
32	1142	76.319675940825	12
32	1153	76.819675940825	13
32	1153	76.819675940825	14
32	1153	76.819675940825	15
32	1153	76.819675940825	16
32	1202	78.319675940825	17
32	1202	78.319675940825	18
32	1202	78.319675940825	19
32	1202	78.319675940825	20
32	1221	80.319675940825	21
32	1221	80.319675940825	22
32	1221	80.319675940825	23
32	1221	80.319675940825	24
32	1235	81.319675940825	25
32	1235	81.319675940825	26
32	1235	81.319675940825	27
32	1235	81.319675940825	28
32	1277	82.319675940825	29
32	1277	82.319675940825	30
32	1277	82.319675940825	31
32	1277	82.319675940825	32
32	1296	84.319675940825	33
32	1296	84.319675940825	34
32	1296	84.319675940825	35
32	1296	84.319675940825	36
32	1310	85.819675940825	37
32	1310	85.819675940825	38
32	1310	85.819675940825	39
32	1310	85.819675940825	40
32	1337	86.319675940825	41
32	1337	86.319675940825	42
32	1337	86.319675940825	43
32	1337	86.319675940825	44
32	1369	88.319675940825	45
32	1369	88.319675940825	46
32	1369	88.319675940825	47
32	1369	88.319675940825	48
32	1388	90.319675940825	49
32	1388	90.319675940825	50
32	1388	90.319675940825	51
32	1388	90.319675940825	52
32	1389	90.319675940825	53
32	1389	90.319675940825	54
32	1389	90.319675940825	55
32	1389	90.319675940825	56
32	1444	92.319675940825	57
32	1444	92.319675940825	58
32	1444	92.319675940825	59
32	1444	92.319675940825	60
32	1463	94.319675940825	61
32	1463	94.319675940825	62
32	1463	94.319675940825	63
32	1463	94.319675940825	64
32	1472	94.819675940825	65
32	1472	94.819675940825	66
32	1472	94.819675940825	67
32	1472	94.819675940825	68
32	1519	96.319675940825	69
32	1519	96.319675940825	70
32	1519	96.319675940825	71
32	1519	96.319675940825	72
32	1538	98.319675940825	73
32	1538	98.319675940825	74
32	1538	98.319675940825	75
32	1538	98.319675940825	76
32	1552	99.319675940825	77
32	1552	99.319675940825	78
32	1552	99.319675940825	79
32	1552	99.319675940825	80
33	1204	78.330714601669	1
33	1223	80.330714601669	2
33	1237	81.330714601669	3
33	1279	82.330714601669	4
33	1298	84.330714601669	5
33	1312	85.830714601669	6
33	1340	86.330714601669	7
33	1371	88.330714601669	8
33	1392	90.330714601669	9
33	1393	90.330714601669	10
33	1446	92.330714601669	11
33	1465	94.330714601669	12
33	1474	94.830714601669	13
33	1521	96.330714601669	14
33	1540	98.330714601669	15
33	1554	99.330714601669	16

