version 2
run StaticNetwork-0-20220316-10:19:34-20488
attr configname StaticNetwork
attr datetime 20220316-10:19:34
attr experiment StaticNetwork
attr inifile omnetpp.ini
attr iterationvars "$0=0, $1=7, $2=0"
attr iterationvarsf 0,7,0-
attr measurement "$0=0, $1=7, $2=0"
attr network RAFT_Network
attr processid 20488
attr repetition 0
attr replication #0
attr resultdir results
attr runnumber 0
attr seedset 0
param **.failureProbability 0
param **.recoveryProbability 7
param **.messageLossProbability 0
param **.clients_number 5
param **.cloud.propDelay 0.1s

vector 0 RAFT_Network.server[0] serverState ETV
vector 1 RAFT_Network.server[1] serverState ETV
vector 2 RAFT_Network.server[2] serverState ETV
vector 3 RAFT_Network.server[3] serverState ETV
vector 4 RAFT_Network.server[4] serverState ETV
vector 5 RAFT_Network.client[3] responseTime ETV
vector 6 RAFT_Network.client[1] responseTime ETV
vector 7 RAFT_Network.client[0] responseTime ETV
vector 8 RAFT_Network.client[4] responseTime ETV
vector 9 RAFT_Network.client[2] responseTime ETV
0	0	0	0
0	11	2.264876189682	0
0	11	2.264876189682	1
0	17	2.398184449391	1
0	17	2.398184449391	2
0	1562	100	2
1	0	0	0
1	13	2.30466991491	0
1	13	2.30466991491	0
1	1562	100	0
2	0	0	0
2	15	2.327672727584	0
2	15	2.327672727584	0
2	1562	100	0
3	0	0	0
3	14	2.311037346256	0
3	14	2.311037346256	0
3	1562	100	0
4	0	0	0
4	12	2.304236246681	0
4	12	2.304236246681	0
4	1562	100	0
5	155	11.722664811799	3.722664811799
5	227	16.222664811799	4.5
5	303	20.722664811799	4.5
5	375	25.222664811799	4.5
5	442	29.722664811799	4.5
5	514	34.222664811799	4.5
5	590	38.722664811799	4.5
5	662	43.222664811799	4.5
5	729	47.722664811799	4.5
5	801	52.222664811799	4.5
5	877	56.722664811799	4.5
5	949	61.222664811799	4.5
5	1016	65.722664811799	4.5
5	1088	70.222664811799	4.5
5	1164	74.722664811799	4.5
5	1236	79.222664811799	4.5
5	1303	83.722664811799	4.5
5	1375	88.222664811799	4.5
5	1451	92.722664811799	4.5
5	1523	97.222664811799	4.5
6	156	11.738065675979	3.738065675979
6	228	16.238065675979	4.5
6	304	20.738065675979	4.5
6	376	25.238065675979	4.5
6	443	29.738065675979	4.5
6	515	34.238065675979	4.5
6	591	38.738065675979	4.5
6	663	43.238065675979	4.5
6	730	47.738065675979	4.5
6	802	52.238065675979	4.5
6	878	56.738065675979	4.5
6	950	61.238065675979	4.5
6	1017	65.738065675979	4.5
6	1089	70.238065675979	4.5
6	1165	74.738065675979	4.5
6	1237	79.238065675979	4.5
6	1304	83.738065675979	4.5
6	1376	88.238065675979	4.5
6	1452	92.738065675979	4.5
6	1524	97.238065675979	4.5
7	158	11.767333894531	3.767333894531
7	230	16.267333894531	4.5
7	306	20.767333894531	4.5
7	378	25.267333894531	4.5
7	445	29.767333894531	4.5
7	517	34.267333894531	4.5
7	593	38.767333894531	4.5
7	665	43.267333894531	4.5
7	732	47.767333894531	4.5
7	804	52.267333894531	4.5
7	880	56.767333894531	4.5
7	952	61.267333894531	4.5
7	1019	65.767333894531	4.5
7	1091	70.267333894531	4.5
7	1167	74.767333894531	4.5
7	1239	79.267333894531	4.5
7	1306	83.767333894531	4.5
7	1378	88.267333894531	4.5
7	1454	92.767333894531	4.5
7	1526	97.267333894531	4.5
8	161	11.817147879912	3.817147879912
8	233	16.317147879912	4.5
8	309	20.817147879912	4.5
8	381	25.317147879912	4.5
8	448	29.817147879912	4.5
8	520	34.317147879912	4.5
8	596	38.817147879912	4.5
8	668	43.317147879912	4.5
8	735	47.817147879912	4.5
8	807	52.317147879912	4.5
8	883	56.817147879912	4.5
8	955	61.317147879912	4.5
8	1022	65.817147879912	4.5
8	1094	70.317147879912	4.5
8	1170	74.817147879912	4.5
8	1242	79.317147879912	4.5
8	1309	83.817147879912	4.5
8	1381	88.317147879912	4.5
8	1457	92.817147879912	4.5
8	1529	97.317147879912	4.5
9	162	11.87261176555	3.87261176555
9	234	16.37261176555	4.5
9	310	20.87261176555	4.5
9	382	25.37261176555	4.5
9	449	29.87261176555	4.5
9	521	34.37261176555	4.5
9	597	38.87261176555	4.5
9	669	43.37261176555	4.5
9	736	47.87261176555	4.5
9	808	52.37261176555	4.5
9	884	56.87261176555	4.5
9	956	61.37261176555	4.5
9	1023	65.87261176555	4.5
9	1095	70.37261176555	4.5
9	1171	74.87261176555	4.5
9	1243	79.37261176555	4.5
9	1310	83.87261176555	4.5
9	1382	88.37261176555	4.5
9	1458	92.87261176555	4.5
9	1530	97.37261176555	4.5

