file 1983274 1648839730                                         
version 2
run StaticNetwork-13-20220401-21:01:28-18812
attr configname StaticNetwork
attr datetime 20220401-21:01:28
attr experiment StaticNetwork
attr inifile omnetpp.ini
attr iterationvars "$0=5, $1=5, $2=normal(7.0s, 1.5s), $3=uniform(0.1s, 0.3s), $4=6s, $5=2s, $6=4.5s, $7=5s, $8=1s, $9=1, $10=7, $11=0"
attr iterationvarsf 5,5,normal(7.0s,_1.5s),uniform(0.1s,_0.3s),6s,2s,4.5s,5s,1s,1,7,0-
attr measurement "$0=5, $1=5, $2=normal(7.0s, 1.5s), $3=uniform(0.1s, 0.3s), $4=6s, $5=2s, $6=4.5s, $7=5s, $8=1s, $9=1, $10=7, $11=0"
attr network RAFT_Network
attr processid 18812
attr repetition 1
attr replication #1
attr resultdir results
attr runnumber 13
attr seedset 13
param **.servers_number 5
param **.clients_number 5
param **.client[*].requestMsgTimeout "normal(7.0s, 1.5s)"
param **.cloud.propDelay "uniform(0.1s, 0.3s)"
param **.server[*].electionTimeout 6s
param **.server[*].heartbeatTimeout 2s
param **.server[*].appendEntriesTimeout 4.5s
param **.server[*].checkFailureTimeout 5s
param **.server[*].checkRecoveryTimeout 1s
param **.failureProbability 1
param **.recoveryProbability 7
param **.messageLossProbability 0

vector 0 RAFT_Network.server[0] serverState ETV
vector 1 RAFT_Network.server[1] serverState ETV
vector 2 RAFT_Network.server[2] serverState ETV
vector 3 RAFT_Network.server[3] serverState ETV
vector 4 RAFT_Network.server[4] serverState ETV
0	1405 9 0 0 0 0 1 0 0 0 0
1	1414 9 0 0 0 0 1 0 0 0 0
2	1423 9 0 0 0 0 1 0 0 0 0
3	1432 9 0 0 0 0 1 0 0 0 0
4	1441 9 0 0 0 0 1 0 0 0 0
vector 5 RAFT_Network.server[1] totMsgReceived ETV
5	1502 22 8 8 5.260902212879 5.260902212879 1 1 1 1 1
vector 6 RAFT_Network.server[0] totMsgSent ETV
vector 7 RAFT_Network.server[0] totRequestVoteMsgSent ETV
0	1631 18 9 9 6 6 2 0 1 1 1
6	1649 36 9 9 6 6 4 1 4 10 30
7	1685 36 9 9 6 6 4 1 4 10 30
vector 8 RAFT_Network.server[1] totMsgSent ETV
vector 9 RAFT_Network.server[1] totRequestVoteMsgSent ETV
1	1828 20 10 10 6 6 2 0 1 1 1
8	1848 40 10 10 6 6 4 1 4 10 30
9	1888 40 10 10 6 6 4 1 4 10 30
vector 10 RAFT_Network.server[2] totMsgSent ETV
vector 11 RAFT_Network.server[2] totRequestVoteMsgSent ETV
2	2037 20 11 11 6 6 2 0 1 1 1
10	2057 44 11 11 6 6 4 1 4 10 30
11	2101 44 11 11 6 6 4 1 4 10 30
vector 12 RAFT_Network.server[3] totMsgSent ETV
vector 13 RAFT_Network.server[3] totRequestVoteMsgSent ETV
3	2254 20 12 12 6 6 2 0 1 1 1
12	2274 44 12 12 6 6 4 1 4 10 30
13	2318 44 12 12 6 6 4 1 4 10 30
vector 14 RAFT_Network.server[4] totMsgSent ETV
vector 15 RAFT_Network.server[4] totRequestVoteMsgSent ETV
4	2471 20 13 13 6 6 2 0 1 1 1
14	2491 44 13 13 6 6 4 1 4 10 30
15	2535 44 13 13 6 6 4 1 4 10 30
vector 16 RAFT_Network.server[1] totReplyToClientRequestMsgSent ETV
5	2648 23 14 14 6.001783251212 6.001783251212 1 2 2 2 4
8	2671 23 14 14 6.001783251212 6.001783251212 1 5 5 5 25
16	2694 24 14 14 6.001783251212 6.001783251212 1 1 1 1 1
5	2718 23 15 15 6.003014709667 6.003014709667 1 3 3 3 9
8	2741 23 15 15 6.003014709667 6.003014709667 1 6 6 6 36
16	2764 24 15 15 6.003014709667 6.003014709667 1 2 2 2 4
5	2788 23 16 16 6.017723117448 6.017723117448 1 4 4 4 16
8	2811 23 16 16 6.017723117448 6.017723117448 1 7 7 7 49
16	2834 24 16 16 6.017723117448 6.017723117448 1 3 3 3 9
vector 17 RAFT_Network.server[2] totMsgReceived ETV
vector 18 RAFT_Network.server[2] totReplyToClientRequestMsgSent ETV
10	2980 24 17 17 6.020802081244 6.020802081244 1 5 5 5 25
17	3004 24 17 17 6.020802081244 6.020802081244 1 1 1 1 1
18	3028 24 17 17 6.020802081244 6.020802081244 1 1 1 1 1
17	3052 24 18 18 6.022585332456 6.022585332456 1 2 2 2 4
5	3076 23 19 19 6.022585332456 6.022585332456 1 5 5 5 25
10	3099 24 20 20 6.023328797661 6.023328797661 1 6 6 6 36
17	3123 24 20 20 6.023328797661 6.023328797661 1 3 3 3 9
18	3147 24 20 20 6.023328797661 6.023328797661 1 2 2 2 4
vector 19 RAFT_Network.server[4] totMsgReceived ETV
vector 20 RAFT_Network.server[4] totReplyToClientRequestMsgSent ETV
14	3293 24 21 21 6.024554661393 6.024554661393 1 5 5 5 25
19	3317 24 21 21 6.024554661393 6.024554661393 1 1 1 1 1
20	3341 24 21 21 6.024554661393 6.024554661393 1 1 1 1 1
14	3365 24 22 22 6.031894354977 6.031894354977 1 6 6 6 36
19	3389 24 22 22 6.031894354977 6.031894354977 1 2 2 2 4
20	3413 24 22 22 6.031894354977 6.031894354977 1 2 2 2 4
14	3437 24 23 23 6.034358785632 6.034358785632 1 7 7 7 49
19	3461 24 23 23 6.034358785632 6.034358785632 1 3 3 3 9
20	3485 24 23 23 6.034358785632 6.034358785632 1 3 3 3 9
10	3509 24 24 24 6.046740985071 6.046740985071 1 7 7 7 49
17	3533 24 24 24 6.046740985071 6.046740985071 1 4 4 4 16
18	3557 24 24 24 6.046740985071 6.046740985071 1 3 3 3 9
vector 21 RAFT_Network.server[0] totMsgReceived ETV
vector 22 RAFT_Network.server[0] totReplyToClientRequestMsgSent ETV
6	3703 23 25 25 6.046957816282 6.046957816282 1 5 5 5 25
21	3726 24 25 25 6.046957816282 6.046957816282 1 1 1 1 1
22	3750 24 25 25 6.046957816282 6.046957816282 1 1 1 1 1
6	3774 23 26 26 6.051307141953 6.051307141953 1 6 6 6 36
21	3797 24 26 26 6.051307141953 6.051307141953 1 2 2 2 4
22	3821 24 26 26 6.051307141953 6.051307141953 1 2 2 2 4
vector 23 RAFT_Network.server[3] totMsgReceived ETV
vector 24 RAFT_Network.server[3] totReplyToClientRequestMsgSent ETV
12	3967 24 27 27 6.054222476883 6.054222476883 1 5 5 5 25
23	3991 24 27 27 6.054222476883 6.054222476883 1 1 1 1 1
24	4015 24 27 27 6.054222476883 6.054222476883 1 1 1 1 1
19	4039 24 28 28 6.055223152638 6.055223152638 1 4 4 4 16
17	4063 24 29 29 6.055223152638 6.055223152638 1 5 5 5 25
12	4087 23 30 30 6.05694796248 6.05694796248 1 6 6 6 36
23	4110 23 30 30 6.05694796248 6.05694796248 1 2 2 2 4
24	4133 23 30 30 6.05694796248 6.05694796248 1 2 2 2 4
12	4156 24 31 31 6.063653734232 6.063653734232 1 7 7 7 49
23	4180 24 31 31 6.063653734232 6.063653734232 1 3 3 3 9
24	4204 24 31 31 6.063653734232 6.063653734232 1 3 3 3 9
6	4228 22 32 32 6.06400998715 6.06400998715 1 7 7 7 49
21	4250 23 32 32 6.06400998715 6.06400998715 1 3 3 3 9
22	4273 23 32 32 6.06400998715 6.06400998715 1 3 3 3 9
5	4296 23 33 33 6.069648130292 6.069648130292 1 6 6 6 36
8	4319 23 33 33 6.069648130292 6.069648130292 1 8 8 8 64
16	4342 24 33 33 6.069648130292 6.069648130292 1 4 4 4 16
23	4366 24 34 34 6.071945594331 6.071945594331 1 4 4 4 16
5	4390 23 35 35 6.071945594331 6.071945594331 1 7 7 7 49
6	4413 23 36 36 6.074699882982 6.074699882982 1 8 8 8 64
21	4436 24 36 36 6.074699882982 6.074699882982 1 4 4 4 16
22	4460 24 36 36 6.074699882982 6.074699882982 1 4 4 4 16
12	4484 24 37 37 6.078999137558 6.078999137558 1 8 8 8 64
23	4508 24 37 37 6.078999137558 6.078999137558 1 5 5 5 25
24	4532 24 37 37 6.078999137558 6.078999137558 1 4 4 4 16
21	4556 24 38 38 6.088564648543 6.088564648543 1 5 5 5 25
19	4580 24 39 39 6.088564648543 6.088564648543 1 5 5 5 25
23	4604 24 40 40 6.091306748112 6.091306748112 1 6 6 6 36
19	4628 24 41 41 6.091306748112 6.091306748112 1 6 6 6 36
10	4652 24 42 42 6.097266846056 6.097266846056 1 8 8 8 64
17	4676 24 42 42 6.097266846056 6.097266846056 1 6 6 6 36
18	4700 24 42 42 6.097266846056 6.097266846056 1 4 4 4 16
5	4724 23 43 43 6.116605946574 6.116605946574 1 8 8 8 64
21	4747 24 44 44 6.116605946574 6.116605946574 1 6 6 6 36
14	4771 24 45 45 6.117983068646 6.117983068646 1 8 8 8 64
19	4795 24 45 45 6.117983068646 6.117983068646 1 7 7 7 49
20	4819 24 45 45 6.117983068646 6.117983068646 1 4 4 4 16
19	4843 24 46 46 6.120997778313 6.120997778313 1 8 8 8 64
5	4867 23 47 47 6.120997778313 6.120997778313 1 9 9 9 81
21	4890 24 48 48 6.121440868053 6.121440868053 1 7 7 7 49
17	4914 24 49 49 6.121440868053 6.121440868053 1 7 7 7 49
23	4938 24 50 50 6.130306279511 6.130306279511 1 7 7 7 49
21	4962 24 51 51 6.130306279511 6.130306279511 1 8 8 8 64
17	4986 24 52 52 6.160920580288 6.160920580288 1 8 8 8 64
23	5010 24 53 53 6.160920580288 6.160920580288 1 8 8 8 64
5	5034 24 56 56 7.494363842788 7.494363842788 1 10 10 10 100
5	5058 24 59 59 8.069584271563 8.069584271563 1 11 11 11 121
5	5082 24 62 62 8.938064257553 8.938064257553 1 12 12 12 144
19	5106 24 65 65 9.427669395955 9.427669395955 1 9 9 9 81
19	5130 26 73 73 10.201267885535 10.201267885535 1 10 10 10 100
0	5156 22 74 74 12 12 2 1 1 2 2
6	5178 47 74 74 12 12 4 9 12 42 446
7	5225 44 74 74 12 12 4 5 8 26 174
1	5269 22 75 75 12 12 2 1 1 2 2
8	5291 47 75 75 12 12 4 9 12 42 446
9	5338 44 75 75 12 12 4 5 8 26 174
2	5382 22 76 76 12 12 2 1 1 2 2
10	5404 51 76 76 12 12 4 9 12 42 446
11	5455 48 76 76 12 12 4 5 8 26 174
3	5503 22 77 77 12 12 2 1 1 2 2
12	5525 51 77 77 12 12 4 9 12 42 446
13	5576 48 77 77 12 12 4 5 8 26 174
4	5624 22 78 78 12 12 2 1 1 2 2
14	5646 51 78 78 12 12 4 9 12 42 446
15	5697 48 78 78 12 12 4 5 8 26 174
5	5745 25 79 79 12.001783251212 12.001783251212 1 13 13 13 169
8	5770 25 79 79 12.001783251212 12.001783251212 1 13 13 13 169
16	5795 25 79 79 12.001783251212 12.001783251212 1 5 5 5 25
5	5820 25 80 80 12.003014709667 12.003014709667 1 14 14 14 196
8	5845 25 80 80 12.003014709667 12.003014709667 1 14 14 14 196
16	5870 25 80 80 12.003014709667 12.003014709667 1 6 6 6 36
5	5895 25 81 81 12.017723117448 12.017723117448 1 15 15 15 225
8	5920 25 81 81 12.017723117448 12.017723117448 1 15 15 15 225
16	5945 25 81 81 12.017723117448 12.017723117448 1 7 7 7 49
10	5970 26 82 82 12.020802081244 12.020802081244 1 13 13 13 169
17	5996 25 82 82 12.020802081244 12.020802081244 1 9 9 9 81
18	6021 25 82 82 12.020802081244 12.020802081244 1 5 5 5 25
17	6046 26 83 83 12.022585332456 12.022585332456 1 10 10 10 100
5	6072 25 84 84 12.022585332456 12.022585332456 1 16 16 16 256
0	6097 12546 136 15161 18 1476.048741067494 486 -1 1 454 470
1	18643 12794 137 15155 18 1476.001783251212 488 -1 1 480 484
2	31437 11866 138 15156 18 1476.022585332456 486 -1 1 470 478
3	43303 13072 139 15165 18 1476.056005728095 484 -1 1 452 468
4	56375 10988 140 15163 18 1476.054479687433 474 -1 1 458 466
5	67363 62149 98 15210 12.069648130292 1479.597420671534 2078 17 2094 2193329 3062806799
6	129512 53570 90 15183 12.046957816282 1476.118489674583 1832 13 1844 1701012 2091773020
7	183082 25928 136 15161 18 1476.048741067494 924 9 932 434742 270286786
8	209010 54954 98 15181 12.069648130292 1476.118389197786 1882 16 1897 1800133 2277318805
9	263964 27200 137 15155 18 1476.001783251212 964 9 972 472842 306582366
10	291164 54971 85 15193 12.023328797661 1476.153272574151 1866 14 1879 1766169 2213122961
11	346135 26012 138 15156 18 1476.022585332456 948 9 956 457410 291697862
12	372147 56392 92 15186 12.054222476883 1476.127740205052 1825 13 1837 1688125 2068048025
13	428539 27916 139 15165 18 1476.056005728095 920 9 928 431020 266823460
14	456455 52548 86 15184 12.024554661393 1476.119766319858 1823 13 1835 1684452 2061302560
15	509003 24208 140 15163 18 1476.054479687433 924 9 932 434742 270286786
16	533211 27672 98 15181 12.069648130292 1476.118389197786 918 8 925 428247 264245535
17	560883 63739 85 15198 12.023328797661 1476.183505912744 2054 11 2064 2131025 2933076055
18	624622 27975 85 15193 12.023328797661 1476.153272574151 918 6 923 426411 262536219
19	652597 63712 86 15196 12.024554661393 1476.175477465746 2053 11 2063 2128961 2928815959
20	716309 27399 86 15184 12.024554661393 1476.119766319858 899 5 903 408146 245845934
21	743708 63328 90 15211 12.046957816282 1479.732838884725 2043 9 2051 2104290 2878016322
22	807036 27600 90 15183 12.046957816282 1476.118489674583 908 5 912 416318 253266170
23	834636 63163 92 15203 12.054222476883 1478.999182903027 2037 9 2045 2091999 2852838191
24	897799 27533 92 15186 12.054222476883 1476.127740205052 905 5 909 413585 250776405
0	925332 14682 15224 30909 1482.048741067494 2994.048741067494 508 -1 1 500 504
1	940014 14292 15218 30908 1482.001783251212 2994.046953916124 498 -1 1 474 486
2	954306 14748 15219 30910 1482.022585332456 2994.067755997368 512 -1 1 496 504
3	969054 14400 15228 30917 1482.056005728095 2994.078591060551 500 -1 1 482 490
4	983454 14466 15226 30914 1482.054479687433 2994.073295728887 504 -1 1 480 492
5	997920 68819 15221 30943 1482.024368583668 2994.167951694437 2166 2095 4260 6882465 22715858215
6	1066739 63046 15224 30936 1482.048741067494 2994.14245588035 1976 1845 3820 5597020 16496512500
7	1129785 32061 15224 30909 1482.048741067494 2994.048741067494 1004 933 1936 1440238 2150358666
8	1161846 60740 15218 30926 1482.001783251212 2994.118389197786 1910 1898 3807 5448275 16121860195
9	1222586 30693 15218 30908 1482.001783251212 2994.046953916124 960 973 1932 1394400 2099093920
10	1253279 65109 15219 30946 1482.022585332456 2994.175857906607 1973 1880 3852 5654618 16846164550
11	1318388 32957 15219 30910 1482.022585332456 2994.067755997368 1000 957 1956 1456500 2204725500
12	1351345 63541 15228 30933 1482.056005728095 2994.1314097316 1929 1838 3766 5405058 15743129696
13	1414886 32005 15228 30917 1482.056005728095 2994.078591060551 972 929 1900 1374894 2021314986
14	1446891 63613 15226 30941 1482.054479687433 2994.16493698477 1930 1836 3765 5404965 15735692405
15	1510504 32009 15226 30914 1482.054479687433 2994.073295728887 972 933 1904 1378782 2032329690
16	1542513 30896 15221 30926 1482.024368583668 2994.118389197786 950 926 1875 1330475 1934778075
17	1573409 71360 15220 30959 1482.022585332456 2995.501279554125 2165 2065 4229 6813255 22286966815
18	1644769 32033 15220 30946 1482.022585332456 2994.175857906607 973 924 1896 1371930 2011185162
19	1676802 70311 15227 30967 1482.054479687433 2996.11158511525 2141 2064 4204 6709894 21846648386
20	1747113 31441 15227 30941 1482.054479687433 2994.16493698477 958 904 1861 1324435 1904299467
21	1778554 71017 15216 30947 1480.818973202619 2994.179047347005 2158 2052 4209 6755619 21985942459
22	1849571 31803 15225 30936 1482.048741067494 2994.14245588035 972 913 1884 1359342 1977567210
23	1881374 70523 15229 30960 1482.056005728095 2995.691076942469 2141 2046 4186 6671356 21605785886
24	1951897 31375 15229 30933 1482.056005728095 2994.1314097316 957 910 1866 1328316 1916741486

