version 2
run StaticNetwork-5-20220401-20:38:37-18812
attr configname StaticNetwork
attr datetime 20220401-20:38:37
attr experiment StaticNetwork
attr inifile omnetpp.ini
attr iterationvars "$0=3, $1=5, $2=normal(7.0s, 1.5s), $3=uniform(0.1s, 0.3s), $4=6s, $5=2s, $6=4.5s, $7=5s, $8=1s, $9=1, $10=7, $11=0"
attr iterationvarsf 3,5,normal(7.0s,_1.5s),uniform(0.1s,_0.3s),6s,2s,4.5s,5s,1s,1,7,0-
attr measurement "$0=3, $1=5, $2=normal(7.0s, 1.5s), $3=uniform(0.1s, 0.3s), $4=6s, $5=2s, $6=4.5s, $7=5s, $8=1s, $9=1, $10=7, $11=0"
attr network RAFT_Network
attr processid 18812
attr repetition 1
attr replication #1
attr resultdir results
attr runnumber 5
attr seedset 5
param **.servers_number 3
param **.clients_number 5
param **.client[*].requestMsgTimeout "normal(7.0s, 1.5s)"
param **.cloud.propDelay "uniform(0.1s, 0.3s)"
param **.server[*].electionTimeout 6s
param **.server[*].heartbeatTimeout 2s
param **.server[*].appendEntriesTimeout 4.5s
param **.server[*].checkFailureTimeout 5s
param **.server[*].checkRecoveryTimeout 1s
param **.failureProbability 1
param **.recoveryProbability 7
param **.messageLossProbability 0

vector 0 RAFT_Network.server[0] serverState ETV
vector 1 RAFT_Network.server[1] serverState ETV
vector 2 RAFT_Network.server[2] serverState ETV
vector 3 RAFT_Network.server[0] totMsgSent ETV
vector 4 RAFT_Network.server[0] totRequestVoteMsgSent ETV
vector 5 RAFT_Network.server[1] totMsgSent ETV
vector 6 RAFT_Network.server[1] totRequestVoteMsgSent ETV
vector 7 RAFT_Network.server[2] totMsgSent ETV
vector 8 RAFT_Network.server[2] totRequestVoteMsgSent ETV
vector 9 RAFT_Network.server[1] totMsgReceived ETV
vector 10 RAFT_Network.server[1] totReplyToClientRequestMsgSent ETV
vector 11 RAFT_Network.server[2] totMsgReceived ETV
vector 12 RAFT_Network.server[2] totReplyToClientRequestMsgSent ETV
vector 13 RAFT_Network.server[0] totMsgReceived ETV
vector 14 RAFT_Network.server[0] totReplyToClientRequestMsgSent ETV
vector 15 RAFT_Network.server[0] electionsMeanTime ETV
vector 16 RAFT_Network.server[2] totAppendEntriesMsgSent ETV
vector 17 RAFT_Network.server[1] totReplyToAppendEntriesMsgSent ETV
vector 18 RAFT_Network.server[0] totReplyToAppendEntriesMsgSent ETV
vector 19 RAFT_Network.client[1] responseTime ETV
vector 20 RAFT_Network.client[3] responseTime ETV
vector 21 RAFT_Network.client[4] responseTime ETV
vector 22 RAFT_Network.client[0] responseTime ETV
vector 23 RAFT_Network.client[2] responseTime ETV
vector 24 RAFT_Network.server[0] totAppendEntriesMsgSent ETV
vector 25 RAFT_Network.server[2] totReplyToAppendEntriesMsgSent ETV
vector 26 RAFT_Network.server[1] totAppendEntriesMsgSent ETV
0	0	0	0
0	4	6	0
0	4	6	1
0	37	12	1
0	37	12	1
0	67	18	1
0	67	18	1
0	92	24	1
0	92	24	1
0	121	30	1
0	121	30	1
0	157	36	1
0	157	36	1
0	176	40	1
0	176	40	-1
0	404	89	-1
0	404	89	0
0	411	90.036533937145	0
0	411	90.036533937145	0
0	774	134.094926348617	0
0	774	134.094926348617	1
0	805	140.094926348617	1
0	805	140.094926348617	1
0	841	146.094926348617	1
0	841	146.094926348617	1
0	869	152.094926348617	1
0	869	152.094926348617	1
0	900	158.094926348617	1
0	900	158.094926348617	1
0	912	158.19279844129	1
0	912	158.19279844129	2
0	3128	414	2
0	3128	414	-1
0	3195	425	-1
0	3195	425	0
0	3223	430.251190852762	0
0	3223	430.251190852762	0
0	3248	436.251190852762	0
0	3248	436.251190852762	1
0	3284	442.251190852762	1
0	3284	442.251190852762	1
0	3329	448.251190852762	1
0	3329	448.251190852762	1
0	3363	454.251190852762	1
0	3363	454.251190852762	1
0	3402	460.251190852762	1
0	3402	460.251190852762	1
0	3447	466.251190852762	1
0	3447	466.251190852762	1
0	3482	472.251190852762	1
0	3482	472.251190852762	1
0	3523	478.251190852762	1
0	3523	478.251190852762	1
0	3548	484.251190852762	1
0	3548	484.251190852762	1
0	3585	490.251190852762	1
0	3585	490.251190852762	1
0	3617	496.251190852762	1
0	3617	496.251190852762	1
0	3649	502.251190852762	1
0	3649	502.251190852762	1
0	3659	502.341614967172	1
0	3659	502.341614967172	0
0	6376	815	0
0	6376	815	-1
0	6691	851	-1
0	6691	851	0
0	6735	860.338885581591	0
0	6735	860.338885581591	0
0	7545	951	0
0	7545	951	-1
0	7599	959	-1
0	7599	959	0
0	9425	1169	0
0	9425	1169	-1
0	9436	1171	-1
0	9436	1171	0
0	12766	1556.397277993063	0
0	12766	1556.397277993063	1
0	12808	1562.397277993063	1
0	12808	1562.397277993063	1
0	12844	1568.397277993063	1
0	12844	1568.397277993063	1
0	12865	1574.397277993063	1
0	12865	1574.397277993063	1
0	12894	1580.397277993063	1
0	12894	1580.397277993063	1
0	12903	1580.495150085736	1
0	12903	1580.495150085736	2
0	22830	2726	2
0	22830	2726	-1
0	22832	2727	-1
0	22832	2727	0
0	22839	2730.553542497208	0
0	22839	2730.553542497208	0
0	22885	2736.553542497208	0
0	22885	2736.553542497208	1
0	22925	2742.553542497208	1
0	22925	2742.553542497208	1
0	22957	2748.553542497208	1
0	22957	2748.553542497208	1
0	22996	2754.553542497208	1
0	22996	2754.553542497208	1
0	23049	2760.553542497208	1
0	23049	2760.553542497208	1
0	23076	2766.553542497208	1
0	23076	2766.553542497208	1
0	23115	2772.553542497208	1
0	23115	2772.553542497208	1
0	23167	2778.553542497208	1
0	23167	2778.553542497208	1
0	23200	2784.553542497208	1
0	23200	2784.553542497208	1
0	23242	2790.553542497208	1
0	23242	2790.553542497208	1
0	23280	2796.553542497208	1
0	23280	2796.553542497208	1
0	23317	2802.553542497208	1
0	23317	2802.553542497208	1
0	23353	2808.553542497208	1
0	23353	2808.553542497208	1
0	23395	2814.553542497208	1
0	23395	2814.553542497208	1
0	23423	2820.553542497208	1
0	23423	2820.553542497208	1
0	23450	2822	1
0	23450	2822	-1
0	23539	2839	-1
0	23539	2839	0
0	23570	2844.553542497208	0
0	23570	2844.553542497208	0
0	23602	2850.553542497208	0
0	23602	2850.553542497208	1
0	23630	2856.553542497208	1
0	23630	2856.553542497208	1
0	23638	2856.604486930417	1
0	23638	2856.604486930417	0
0	24878	3000	0
1	0	0	0
1	5	6	0
1	5	6	1
1	38	12	1
1	38	12	1
1	68	18	1
1	68	18	1
1	93	24	1
1	93	24	1
1	122	30	1
1	122	30	1
1	158	36	1
1	158	36	1
1	185	42	1
1	185	42	1
1	211	48	1
1	211	48	1
1	241	54	1
1	241	54	1
1	269	60	1
1	269	60	1
1	296	66	1
1	296	66	1
1	322	72	1
1	322	72	1
1	352	78	1
1	352	78	1
1	377	84	1
1	377	84	1
1	405	90	1
1	405	90	1
1	416	90.075998143357	1
1	416	90.075998143357	0
1	557	105	0
1	557	105	-1
1	899	158	-1
1	899	158	0
1	903	158.12019641724	0
1	903	158.12019641724	0
1	2081	293	0
1	2081	293	-1
1	2113	295	-1
1	2113	295	0
1	3139	418.218068509913	0
1	3139	418.218068509913	1
1	3186	424.218068509913	1
1	3186	424.218068509913	1
1	3221	430.218068509913	1
1	3221	430.218068509913	1
1	3246	436.218068509913	1
1	3246	436.218068509913	1
1	3282	442.218068509913	1
1	3282	442.218068509913	1
1	3327	448.218068509913	1
1	3327	448.218068509913	1
1	3361	454.218068509913	1
1	3361	454.218068509913	1
1	3400	460.218068509913	1
1	3400	460.218068509913	1
1	3445	466.218068509913	1
1	3445	466.218068509913	1
1	3480	472.218068509913	1
1	3480	472.218068509913	1
1	3522	478.218068509913	1
1	3522	478.218068509913	1
1	3547	484.218068509913	1
1	3547	484.218068509913	1
1	3582	490.218068509913	1
1	3582	490.218068509913	1
1	3616	496.218068509913	1
1	3616	496.218068509913	1
1	3648	502.218068509913	1
1	3648	502.218068509913	1
1	3651	502.269012943122	1
1	3651	502.269012943122	2
1	6727	855	2
1	6727	855	-1
1	6730	856	-1
1	6730	856	0
1	6734	860.319957376331	0
1	6734	860.319957376331	0
1	7236	916	0
1	7236	916	-1
1	7443	941	-1
1	7443	941	0
1	9351	1161	0
1	9351	1161	-1
1	10022	1236	-1
1	10022	1236	0
1	10237	1261	0
1	10237	1261	-1
1	10340	1273	-1
1	10340	1273	0
1	12765	1556.378349787803	0
1	12765	1556.378349787803	1
1	12807	1562.378349787803	1
1	12807	1562.378349787803	1
1	12842	1568	1
1	12842	1568	-1
1	12893	1580	-1
1	12893	1580	0
1	12897	1580.422548061686	0
1	12897	1580.422548061686	0
1	13675	1670	0
1	13675	1670	-1
1	13831	1687	-1
1	13831	1687	0
1	22837	2730.520420154359	0
1	22837	2730.520420154359	1
1	22883	2736.520420154359	1
1	22883	2736.520420154359	1
1	22923	2742.520420154359	1
1	22923	2742.520420154359	1
1	22955	2748.520420154359	1
1	22955	2748.520420154359	1
1	22994	2754.520420154359	1
1	22994	2754.520420154359	1
1	23047	2760.520420154359	1
1	23047	2760.520420154359	1
1	23074	2766.520420154359	1
1	23074	2766.520420154359	1
1	23112	2772.520420154359	1
1	23112	2772.520420154359	1
1	23165	2778.520420154359	1
1	23165	2778.520420154359	1
1	23198	2784.520420154359	1
1	23198	2784.520420154359	1
1	23240	2790.520420154359	1
1	23240	2790.520420154359	1
1	23278	2796.520420154359	1
1	23278	2796.520420154359	1
1	23315	2802.520420154359	1
1	23315	2802.520420154359	1
1	23351	2808.520420154359	1
1	23351	2808.520420154359	1
1	23392	2814.520420154359	1
1	23392	2814.520420154359	1
1	23421	2820.520420154359	1
1	23421	2820.520420154359	1
1	23462	2826.520420154359	1
1	23462	2826.520420154359	1
1	23504	2832	1
1	23504	2832	-1
1	23608	2851	-1
1	23608	2851	0
1	23629	2856.534614291948	0
1	23629	2856.534614291948	0
1	24878	3000	0
2	0	0	0
2	6	6	0
2	6	6	1
2	39	12	1
2	39	12	1
2	69	18	1
2	69	18	1
2	94	24	1
2	94	24	1
2	123	30	1
2	123	30	1
2	159	36	1
2	159	36	1
2	186	42	1
2	186	42	1
2	212	48	1
2	212	48	1
2	242	54	1
2	242	54	1
2	270	60	1
2	270	60	1
2	297	66	1
2	297	66	1
2	323	72	1
2	323	72	1
2	353	78	1
2	353	78	1
2	378	84	1
2	378	84	1
2	406	90	1
2	406	90	1
2	414	90.058392411472	1
2	414	90.058392411472	2
2	760	130	2
2	760	130	-1
2	772	134	-1
2	772	134	0
2	775	134.116784822944	0
2	775	134.116784822944	0
2	806	140.116784822944	0
2	806	140.116784822944	1
2	842	146.116784822944	1
2	842	146.116784822944	1
2	870	152.116784822944	1
2	870	152.116784822944	1
2	901	158.116784822944	1
2	901	158.116784822944	1
2	913	158.214656915617	1
2	913	158.214656915617	0
2	3138	418.214656915617	0
2	3138	418.214656915617	1
2	3185	424.214656915617	1
2	3185	424.214656915617	1
2	3220	430.214656915617	1
2	3220	430.214656915617	1
2	3245	436.214656915617	1
2	3245	436.214656915617	1
2	3281	442.214656915617	1
2	3281	442.214656915617	1
2	3326	448.214656915617	1
2	3326	448.214656915617	1
2	3360	454.214656915617	1
2	3360	454.214656915617	1
2	3399	460.214656915617	1
2	3399	460.214656915617	1
2	3444	466.214656915617	1
2	3444	466.214656915617	1
2	3479	472.214656915617	1
2	3479	472.214656915617	1
2	3505	474	1
2	3505	474	-1
2	3629	498	-1
2	3629	498	0
2	3650	502.251407211237	0
2	3650	502.251407211237	0
2	6406	818	0
2	6406	818	-1
2	6420	821	-1
2	6420	821	0
2	6733	860.302351644446	0
2	6733	860.302351644446	1
2	6738	860.360744055918	1
2	6738	860.360744055918	2
2	12751	1551	2
2	12751	1551	-1
2	12843	1568	-1
2	12843	1568	0
2	12845	1568.41913646739	0
2	12845	1568.41913646739	0
2	12866	1574.41913646739	0
2	12866	1574.41913646739	1
2	12895	1580.41913646739	1
2	12895	1580.41913646739	1
2	12904	1580.517008560063	1
2	12904	1580.517008560063	0
2	15658	1898	0
2	15658	1898	-1
2	15851	1919	-1
2	15851	1919	0
2	21853	2614	0
2	21853	2614	-1
2	22475	2684	-1
2	22475	2684	0
2	22836	2730.517008560063	0
2	22836	2730.517008560063	1
2	22882	2736.517008560063	1
2	22882	2736.517008560063	1
2	22922	2742.517008560063	1
2	22922	2742.517008560063	1
2	22954	2748.517008560063	1
2	22954	2748.517008560063	1
2	22993	2754.517008560063	1
2	22993	2754.517008560063	1
2	23046	2760.517008560063	1
2	23046	2760.517008560063	1
2	23073	2766.517008560063	1
2	23073	2766.517008560063	1
2	23111	2772.517008560063	1
2	23111	2772.517008560063	1
2	23164	2778.517008560063	1
2	23164	2778.517008560063	1
2	23197	2784.517008560063	1
2	23197	2784.517008560063	1
2	23239	2790.517008560063	1
2	23239	2790.517008560063	1
2	23277	2796.517008560063	1
2	23277	2796.517008560063	1
2	23314	2802.517008560063	1
2	23314	2802.517008560063	1
2	23350	2808.517008560063	1
2	23350	2808.517008560063	1
2	23391	2814.517008560063	1
2	23391	2814.517008560063	1
2	23420	2820.517008560063	1
2	23420	2820.517008560063	1
2	23461	2826.517008560063	1
2	23461	2826.517008560063	1
2	23507	2832.517008560063	1
2	23507	2832.517008560063	1
2	23532	2838.517008560063	1
2	23532	2838.517008560063	1
2	23568	2844.517008560063	1
2	23568	2844.517008560063	1
2	23600	2850.517008560063	1
2	23600	2850.517008560063	1
2	23628	2856.517008560063	1
2	23628	2856.517008560063	1
2	23632	2856.567952993272	1
2	23632	2856.567952993272	2
2	24878	3000	2
3	4	6	1
3	4	6	2
3	11	6.036533937145	3
3	16	6.07260202405	4
3	37	12	5
3	37	12	6
3	44	12.036533937145	7
3	49	12.07260202405	8
3	67	18	9
3	67	18	10
3	74	18.036533937145	11
3	79	18.07260202405	12
3	92	24	13
3	92	24	14
3	99	24.036533937145	15
3	104	24.07260202405	16
3	121	30	17
3	121	30	18
3	131	30.036533937145	19
3	136	30.07260202405	20
3	157	36	21
3	157	36	22
3	164	36.036533937145	23
3	169	36.07260202405	24
3	411	90.036533937145	25
3	415	90.07260202405	26
3	417	90.094926348617	27
3	423	92.094926348617	28
3	449	94.094926348617	29
3	455	94.594926348617	30
3	479	96.094926348617	31
3	485	98.094926348617	32
3	491	99.094926348617	33
3	518	100.094926348617	34
3	523	102.094926348617	35
3	528	103.594926348617	36
3	549	104.094926348617	37
3	562	106.094926348617	38
3	570	108.094926348617	39
3	571	108.094926348617	40
3	600	110.094926348617	41
3	606	112.094926348617	42
3	610	112.594926348617	43
3	637	114.094926348617	44
3	644	116.094926348617	45
3	649	117.094926348617	46
3	674	118.094926348617	47
3	682	120.094926348617	48
3	687	121.594926348617	49
3	707	122.094926348617	50
3	719	124.094926348617	51
3	728	126.094926348617	52
3	729	126.094926348617	53
3	756	128.094926348617	54
3	774	134.094926348617	55
3	774	134.094926348617	56
3	805	140.094926348617	57
3	805	140.094926348617	58
3	810	140.153318760089	59
3	841	146.094926348617	60
3	841	146.094926348617	61
3	846	146.153318760089	62
3	869	152.094926348617	63
3	869	152.094926348617	64
3	874	152.153318760089	65
3	900	158.094926348617	66
3	900	158.094926348617	67
3	907	158.153318760089	68
3	912	158.19279844129	69
3	912	158.19279844129	70
3	936	160.19279844129	71
3	936	160.19279844129	72
3	950	162.19279844129	73
3	950	162.19279844129	74
3	959	162.69279844129	75
3	959	162.69279844129	76
3	962	162.751190852762	77
3	962	162.751190852762	78
3	962	162.751190852762	79
3	981	164.19279844129	80
3	981	164.19279844129	81
3	986	166.19279844129	82
3	986	166.19279844129	83
3	991	167.19279844129	84
3	991	167.19279844129	85
3	994	167.251190852762	86
3	994	167.251190852762	87
3	994	167.251190852762	88
3	994	167.251190852762	89
3	994	167.251190852762	90
3	1017	168.19279844129	91
3	1017	168.19279844129	92
3	1024	170.19279844129	93
3	1024	170.19279844129	94
3	1029	171.69279844129	95
3	1029	171.69279844129	96
3	1032	171.751190852762	97
3	1032	171.751190852762	98
3	1032	171.751190852762	99
3	1032	171.751190852762	100
3	1032	171.751190852762	101
3	1049	172.19279844129	102
3	1049	172.19279844129	103
3	1062	174.19279844129	104
3	1062	174.19279844129	105
3	1067	176.19279844129	106
3	1067	176.19279844129	107
3	1068	176.19279844129	108
3	1068	176.19279844129	109
3	1073	176.251190852762	110
3	1073	176.251190852762	111
3	1073	176.251190852762	112
3	1073	176.251190852762	113
3	1073	176.251190852762	114
3	1098	178.19279844129	115
3	1098	178.19279844129	116
3	1105	180.19279844129	117
3	1105	180.19279844129	118
3	1110	180.69279844129	119
3	1110	180.69279844129	120
3	1113	180.751190852762	121
3	1113	180.751190852762	122
3	1113	180.751190852762	123
3	1113	180.751190852762	124
3	1113	180.751190852762	125
3	1135	182.19279844129	126
3	1135	182.19279844129	127
3	1143	184.19279844129	128
3	1143	184.19279844129	129
3	1148	185.19279844129	130
3	1148	185.19279844129	131
3	1151	185.251190852762	132
3	1151	185.251190852762	133
3	1151	185.251190852762	134
3	1151	185.251190852762	135
3	1151	185.251190852762	136
3	1173	186.19279844129	137
3	1173	186.19279844129	138
3	1179	188.19279844129	139
3	1179	188.19279844129	140
3	1186	189.69279844129	141
3	1186	189.69279844129	142
3	1189	189.751190852762	143
3	1189	189.751190852762	144
3	1189	189.751190852762	145
3	1189	189.751190852762	146
3	1189	189.751190852762	147
3	1206	190.19279844129	148
3	1206	190.19279844129	149
3	1216	192.19279844129	150
3	1216	192.19279844129	151
3	1224	194.19279844129	152
3	1224	194.19279844129	153
3	1225	194.19279844129	154
3	1225	194.19279844129	155
3	1230	194.251190852762	156
3	1230	194.251190852762	157
3	1230	194.251190852762	158
3	1230	194.251190852762	159
3	1230	194.251190852762	160
3	1254	196.19279844129	161
3	1254	196.19279844129	162
3	1260	198.19279844129	163
3	1260	198.19279844129	164
3	1265	198.69279844129	165
3	1265	198.69279844129	166
3	1268	198.751190852762	167
3	1268	198.751190852762	168
3	1268	198.751190852762	169
3	1268	198.751190852762	170
3	1268	198.751190852762	171
3	1292	200.19279844129	172
3	1292	200.19279844129	173
3	1297	202.19279844129	174
3	1297	202.19279844129	175
3	1303	203.19279844129	176
3	1303	203.19279844129	177
3	1306	203.251190852762	178
3	1306	203.251190852762	179
3	1306	203.251190852762	180
3	1306	203.251190852762	181
3	1306	203.251190852762	182
3	1330	204.19279844129	183
3	1330	204.19279844129	184
3	1335	206.19279844129	185
3	1335	206.19279844129	186
3	1340	207.69279844129	187
3	1340	207.69279844129	188
3	1343	207.751190852762	189
3	1343	207.751190852762	190
3	1343	207.751190852762	191
3	1343	207.751190852762	192
3	1343	207.751190852762	193
3	1361	208.19279844129	194
3	1361	208.19279844129	195
3	1373	210.19279844129	196
3	1373	210.19279844129	197
3	1378	212.19279844129	198
3	1378	212.19279844129	199
3	1379	212.19279844129	200
3	1379	212.19279844129	201
3	1384	212.251190852762	202
3	1384	212.251190852762	203
3	1384	212.251190852762	204
3	1384	212.251190852762	205
3	1384	212.251190852762	206
3	1411	214.19279844129	207
3	1411	214.19279844129	208
3	1416	216.19279844129	209
3	1416	216.19279844129	210
3	1421	216.69279844129	211
3	1421	216.69279844129	212
3	1424	216.751190852762	213
3	1424	216.751190852762	214
3	1424	216.751190852762	215
3	1424	216.751190852762	216
3	1424	216.751190852762	217
3	1447	218.19279844129	218
3	1447	218.19279844129	219
3	1454	220.19279844129	220
3	1454	220.19279844129	221
3	1459	221.19279844129	222
3	1459	221.19279844129	223
3	1462	221.251190852762	224
3	1462	221.251190852762	225
3	1462	221.251190852762	226
3	1462	221.251190852762	227
3	1462	221.251190852762	228
3	1484	222.19279844129	229
3	1484	222.19279844129	230
3	1492	224.19279844129	231
3	1492	224.19279844129	232
3	1497	225.69279844129	233
3	1497	225.69279844129	234
3	1500	225.751190852762	235
3	1500	225.751190852762	236
3	1500	225.751190852762	237
3	1500	225.751190852762	238
3	1500	225.751190852762	239
3	1517	226.19279844129	240
3	1517	226.19279844129	241
3	1528	228.19279844129	242
3	1528	228.19279844129	243
3	1535	230.19279844129	244
3	1535	230.19279844129	245
3	1536	230.19279844129	246
3	1536	230.19279844129	247
3	1541	230.251190852762	248
3	1541	230.251190852762	249
3	1541	230.251190852762	250
3	1541	230.251190852762	251
3	1541	230.251190852762	252
3	1565	232.19279844129	253
3	1565	232.19279844129	254
3	1573	234.19279844129	255
3	1573	234.19279844129	256
3	1578	234.69279844129	257
3	1578	234.69279844129	258
3	1581	234.751190852762	259
3	1581	234.751190852762	260
3	1581	234.751190852762	261
3	1581	234.751190852762	262
3	1581	234.751190852762	263
3	1603	236.19279844129	264
3	1603	236.19279844129	265
3	1609	238.19279844129	266
3	1609	238.19279844129	267
3	1616	239.19279844129	268
3	1616	239.19279844129	269
3	1619	239.251190852762	270
3	1619	239.251190852762	271
3	1619	239.251190852762	272
3	1619	239.251190852762	273
3	1619	239.251190852762	274
3	1641	240.19279844129	275
3	1641	240.19279844129	276
3	1646	242.19279844129	277
3	1646	242.19279844129	278
3	1652	243.69279844129	279
3	1652	243.69279844129	280
3	1655	243.751190852762	281
3	1655	243.751190852762	282
3	1655	243.751190852762	283
3	1655	243.751190852762	284
3	1655	243.751190852762	285
3	1674	244.19279844129	286
3	1674	244.19279844129	287
3	1684	246.19279844129	288
3	1684	246.19279844129	289
3	1690	248.19279844129	290
3	1690	248.19279844129	291
3	1691	248.19279844129	292
3	1691	248.19279844129	293
3	1696	248.251190852762	294
3	1696	248.251190852762	295
3	1696	248.251190852762	296
3	1696	248.251190852762	297
3	1696	248.251190852762	298
3	1722	250.19279844129	299
3	1722	250.19279844129	300
3	1727	252.19279844129	301
3	1727	252.19279844129	302
3	1732	252.69279844129	303
3	1732	252.69279844129	304
3	1735	252.751190852762	305
3	1735	252.751190852762	306
3	1735	252.751190852762	307
3	1735	252.751190852762	308
3	1735	252.751190852762	309
3	1760	254.19279844129	310
3	1760	254.19279844129	311
3	1765	256.19279844129	312
3	1765	256.19279844129	313
3	1770	257.19279844129	314
3	1770	257.19279844129	315
3	1773	257.251190852762	316
3	1773	257.251190852762	317
3	1773	257.251190852762	318
3	1773	257.251190852762	319
3	1773	257.251190852762	320
3	1796	258.19279844129	321
3	1796	258.19279844129	322
3	1803	260.19279844129	323
3	1803	260.19279844129	324
3	1808	261.69279844129	325
3	1808	261.69279844129	326
3	1811	261.751190852762	327
3	1811	261.751190852762	328
3	1811	261.751190852762	329
3	1811	261.751190852762	330
3	1811	261.751190852762	331
3	1828	262.19279844129	332
3	1828	262.19279844129	333
3	1841	264.19279844129	334
3	1841	264.19279844129	335
3	1846	266.19279844129	336
3	1846	266.19279844129	337
3	1847	266.19279844129	338
3	1847	266.19279844129	339
3	1852	266.251190852762	340
3	1852	266.251190852762	341
3	1852	266.251190852762	342
3	1852	266.251190852762	343
3	1852	266.251190852762	344
3	1877	268.19279844129	345
3	1877	268.19279844129	346
3	1884	270.19279844129	347
3	1884	270.19279844129	348
3	1889	270.69279844129	349
3	1889	270.69279844129	350
3	1892	270.751190852762	351
3	1892	270.751190852762	352
3	1892	270.751190852762	353
3	1892	270.751190852762	354
3	1892	270.751190852762	355
3	1914	272.19279844129	356
3	1914	272.19279844129	357
3	1922	274.19279844129	358
3	1922	274.19279844129	359
3	1927	275.19279844129	360
3	1927	275.19279844129	361
3	1930	275.251190852762	362
3	1930	275.251190852762	363
3	1930	275.251190852762	364
3	1930	275.251190852762	365
3	1930	275.251190852762	366
3	1952	276.19279844129	367
3	1952	276.19279844129	368
3	1958	278.19279844129	369
3	1958	278.19279844129	370
3	1965	279.69279844129	371
3	1965	279.69279844129	372
3	1968	279.751190852762	373
3	1968	279.751190852762	374
3	1968	279.751190852762	375
3	1968	279.751190852762	376
3	1968	279.751190852762	377
3	1985	280.19279844129	378
3	1985	280.19279844129	379
3	1995	282.19279844129	380
3	1995	282.19279844129	381
3	2003	284.19279844129	382
3	2003	284.19279844129	383
3	2004	284.19279844129	384
3	2004	284.19279844129	385
3	2009	284.251190852762	386
3	2009	284.251190852762	387
3	2009	284.251190852762	388
3	2009	284.251190852762	389
3	2009	284.251190852762	390
3	2033	286.19279844129	391
3	2033	286.19279844129	392
3	2039	288.19279844129	393
3	2039	288.19279844129	394
3	2044	288.69279844129	395
3	2044	288.69279844129	396
3	2047	288.751190852762	397
3	2047	288.751190852762	398
3	2047	288.751190852762	399
3	2047	288.751190852762	400
3	2047	288.751190852762	401
3	2071	290.19279844129	402
3	2071	290.19279844129	403
3	2076	292.19279844129	404
3	2076	292.19279844129	405
3	2082	293.19279844129	406
3	2082	293.19279844129	407
3	2085	293.251190852762	408
3	2085	293.251190852762	409
3	2085	293.251190852762	410
3	2085	293.251190852762	411
3	2085	293.251190852762	412
3	2109	294.19279844129	413
3	2109	294.19279844129	414
3	2114	296.19279844129	415
3	2114	296.19279844129	416
3	2119	297.69279844129	417
3	2119	297.69279844129	418
3	2122	297.751190852762	419
3	2122	297.751190852762	420
3	2122	297.751190852762	421
3	2122	297.751190852762	422
3	2122	297.751190852762	423
3	2139	298.19279844129	424
3	2139	298.19279844129	425
3	2152	300.19279844129	426
3	2152	300.19279844129	427
3	2157	302.19279844129	428
3	2157	302.19279844129	429
3	2158	302.19279844129	430
3	2158	302.19279844129	431
3	2163	302.251190852762	432
3	2163	302.251190852762	433
3	2163	302.251190852762	434
3	2163	302.251190852762	435
3	2163	302.251190852762	436
3	2189	304.19279844129	437
3	2189	304.19279844129	438
3	2195	306.19279844129	439
3	2195	306.19279844129	440
3	2200	306.69279844129	441
3	2200	306.69279844129	442
3	2203	306.751190852762	443
3	2203	306.751190852762	444
3	2203	306.751190852762	445
3	2203	306.751190852762	446
3	2203	306.751190852762	447
3	2225	308.19279844129	448
3	2225	308.19279844129	449
3	2233	310.19279844129	450
3	2233	310.19279844129	451
3	2238	311.19279844129	452
3	2238	311.19279844129	453
3	2241	311.251190852762	454
3	2241	311.251190852762	455
3	2241	311.251190852762	456
3	2241	311.251190852762	457
3	2241	311.251190852762	458
3	2263	312.19279844129	459
3	2263	312.19279844129	460
3	2270	314.19279844129	461
3	2270	314.19279844129	462
3	2276	315.69279844129	463
3	2276	315.69279844129	464
3	2279	315.751190852762	465
3	2279	315.751190852762	466
3	2279	315.751190852762	467
3	2279	315.751190852762	468
3	2279	315.751190852762	469
3	2296	316.19279844129	470
3	2296	316.19279844129	471
3	2306	318.19279844129	472
3	2306	318.19279844129	473
3	2314	320.19279844129	474
3	2314	320.19279844129	475
3	2315	320.19279844129	476
3	2315	320.19279844129	477
3	2320	320.251190852762	478
3	2320	320.251190852762	479
3	2320	320.251190852762	480
3	2320	320.251190852762	481
3	2320	320.251190852762	482
3	2344	322.19279844129	483
3	2344	322.19279844129	484
3	2351	324.19279844129	485
3	2351	324.19279844129	486
3	2356	324.69279844129	487
3	2356	324.69279844129	488
3	2359	324.751190852762	489
3	2359	324.751190852762	490
3	2359	324.751190852762	491
3	2359	324.751190852762	492
3	2359	324.751190852762	493
3	2382	326.19279844129	494
3	2382	326.19279844129	495
3	2387	328.19279844129	496
3	2387	328.19279844129	497
3	2394	329.19279844129	498
3	2394	329.19279844129	499
3	2397	329.251190852762	500
3	2397	329.251190852762	501
3	2397	329.251190852762	502
3	2397	329.251190852762	503
3	2397	329.251190852762	504
3	2420	330.19279844129	505
3	2420	330.19279844129	506
3	2425	332.19279844129	507
3	2425	332.19279844129	508
3	2430	333.69279844129	509
3	2430	333.69279844129	510
3	2433	333.751190852762	511
3	2433	333.751190852762	512
3	2433	333.751190852762	513
3	2433	333.751190852762	514
3	2433	333.751190852762	515
3	2452	334.19279844129	516
3	2452	334.19279844129	517
3	2463	336.19279844129	518
3	2463	336.19279844129	519
3	2468	338.19279844129	520
3	2468	338.19279844129	521
3	2469	338.19279844129	522
3	2469	338.19279844129	523
3	2474	338.251190852762	524
3	2474	338.251190852762	525
3	2474	338.251190852762	526
3	2474	338.251190852762	527
3	2474	338.251190852762	528
3	2501	340.19279844129	529
3	2501	340.19279844129	530
3	2506	342.19279844129	531
3	2506	342.19279844129	532
3	2511	342.69279844129	533
3	2511	342.69279844129	534
3	2514	342.751190852762	535
3	2514	342.751190852762	536
3	2514	342.751190852762	537
3	2514	342.751190852762	538
3	2514	342.751190852762	539
3	2538	344.19279844129	540
3	2538	344.19279844129	541
3	2544	346.19279844129	542
3	2544	346.19279844129	543
3	2549	347.19279844129	544
3	2549	347.19279844129	545
3	2552	347.251190852762	546
3	2552	347.251190852762	547
3	2552	347.251190852762	548
3	2552	347.251190852762	549
3	2552	347.251190852762	550
3	2574	348.19279844129	551
3	2574	348.19279844129	552
3	2582	350.19279844129	553
3	2582	350.19279844129	554
3	2587	351.69279844129	555
3	2587	351.69279844129	556
3	2590	351.751190852762	557
3	2590	351.751190852762	558
3	2590	351.751190852762	559
3	2590	351.751190852762	560
3	2590	351.751190852762	561
3	2607	352.19279844129	562
3	2607	352.19279844129	563
3	2619	354.19279844129	564
3	2619	354.19279844129	565
3	2625	356.19279844129	566
3	2625	356.19279844129	567
3	2626	356.19279844129	568
3	2626	356.19279844129	569
3	2631	356.251190852762	570
3	2631	356.251190852762	571
3	2631	356.251190852762	572
3	2631	356.251190852762	573
3	2631	356.251190852762	574
3	2655	358.19279844129	575
3	2655	358.19279844129	576
3	2663	360.19279844129	577
3	2663	360.19279844129	578
3	2668	360.69279844129	579
3	2668	360.69279844129	580
3	2671	360.751190852762	581
3	2671	360.751190852762	582
3	2671	360.751190852762	583
3	2671	360.751190852762	584
3	2671	360.751190852762	585
3	2693	362.19279844129	586
3	2693	362.19279844129	587
3	2700	364.19279844129	588
3	2700	364.19279844129	589
3	2706	365.19279844129	590
3	2706	365.19279844129	591
3	2709	365.251190852762	592
3	2709	365.251190852762	593
3	2709	365.251190852762	594
3	2709	365.251190852762	595
3	2709	365.251190852762	596
3	2731	366.19279844129	597
3	2731	366.19279844129	598
3	2736	368.19279844129	599
3	2736	368.19279844129	600
3	2743	369.69279844129	601
3	2743	369.69279844129	602
3	2746	369.751190852762	603
3	2746	369.751190852762	604
3	2746	369.751190852762	605
3	2746	369.751190852762	606
3	2746	369.751190852762	607
3	2764	370.19279844129	608
3	2764	370.19279844129	609
3	2774	372.19279844129	610
3	2774	372.19279844129	611
3	2781	374.19279844129	612
3	2781	374.19279844129	613
3	2782	374.19279844129	614
3	2782	374.19279844129	615
3	2787	374.251190852762	616
3	2787	374.251190852762	617
3	2787	374.251190852762	618
3	2787	374.251190852762	619
3	2787	374.251190852762	620
3	2812	376.19279844129	621
3	2812	376.19279844129	622
3	2817	378.19279844129	623
3	2817	378.19279844129	624
3	2822	378.69279844129	625
3	2822	378.69279844129	626
3	2825	378.751190852762	627
3	2825	378.751190852762	628
3	2825	378.751190852762	629
3	2825	378.751190852762	630
3	2825	378.751190852762	631
3	2850	380.19279844129	632
3	2850	380.19279844129	633
3	2855	382.19279844129	634
3	2855	382.19279844129	635
3	2860	383.19279844129	636
3	2860	383.19279844129	637
3	2863	383.251190852762	638
3	2863	383.251190852762	639
3	2863	383.251190852762	640
3	2863	383.251190852762	641
3	2863	383.251190852762	642
3	2887	384.19279844129	643
3	2887	384.19279844129	644
3	2893	386.19279844129	645
3	2893	386.19279844129	646
3	2898	387.69279844129	647
3	2898	387.69279844129	648
3	2901	387.751190852762	649
3	2901	387.751190852762	650
3	2901	387.751190852762	651
3	2901	387.751190852762	652
3	2901	387.751190852762	653
3	2918	388.19279844129	654
3	2918	388.19279844129	655
3	2931	390.19279844129	656
3	2931	390.19279844129	657
3	2936	392.19279844129	658
3	2936	392.19279844129	659
3	2937	392.19279844129	660
3	2937	392.19279844129	661
3	2942	392.251190852762	662
3	2942	392.251190852762	663
3	2942	392.251190852762	664
3	2942	392.251190852762	665
3	2942	392.251190852762	666
3	2968	394.19279844129	667
3	2968	394.19279844129	668
3	2974	396.19279844129	669
3	2974	396.19279844129	670
3	2979	396.69279844129	671
3	2979	396.69279844129	672
3	2982	396.751190852762	673
3	2982	396.751190852762	674
3	2982	396.751190852762	675
3	2982	396.751190852762	676
3	2982	396.751190852762	677
3	3004	398.19279844129	678
3	3004	398.19279844129	679
3	3012	400.19279844129	680
3	3012	400.19279844129	681
3	3017	401.19279844129	682
3	3017	401.19279844129	683
3	3020	401.251190852762	684
3	3020	401.251190852762	685
3	3020	401.251190852762	686
3	3020	401.251190852762	687
3	3020	401.251190852762	688
3	3042	402.19279844129	689
3	3042	402.19279844129	690
3	3049	404.19279844129	691
3	3049	404.19279844129	692
3	3055	405.69279844129	693
3	3055	405.69279844129	694
3	3058	405.751190852762	695
3	3058	405.751190852762	696
3	3058	405.751190852762	697
3	3058	405.751190852762	698
3	3058	405.751190852762	699
3	3075	406.19279844129	700
3	3075	406.19279844129	701
3	3085	408.19279844129	702
3	3085	408.19279844129	703
3	3093	410.19279844129	704
3	3093	410.19279844129	705
3	3094	410.19279844129	706
3	3094	410.19279844129	707
3	3099	410.251190852762	708
3	3099	410.251190852762	709
3	3099	410.251190852762	710
3	3099	410.251190852762	711
3	3099	410.251190852762	712
3	3123	412.19279844129	713
3	3123	412.19279844129	714
3	3223	430.251190852762	715
3	3228	430.290670533963	716
3	3248	436.251190852762	717
3	3248	436.251190852762	718
3	3249	436.251190852762	719
3	3256	436.290670533963	720
3	3284	442.251190852762	721
3	3284	442.251190852762	722
3	3285	442.251190852762	723
3	3292	442.290670533963	724
3	3329	448.251190852762	725
3	3329	448.251190852762	726
3	3330	448.251190852762	727
3	3337	448.290670533963	728
3	3363	454.251190852762	729
3	3363	454.251190852762	730
3	3364	454.251190852762	731
3	3371	454.290670533963	732
3	3402	460.251190852762	733
3	3402	460.251190852762	734
3	3403	460.251190852762	735
3	3410	460.290670533963	736
3	3447	466.251190852762	737
3	3447	466.251190852762	738
3	3448	466.251190852762	739
3	3455	466.290670533963	740
3	3482	472.251190852762	741
3	3482	472.251190852762	742
3	3483	472.251190852762	743
3	3490	472.290670533963	744
3	3523	478.251190852762	745
3	3523	478.251190852762	746
3	3528	478.290670533963	747
3	3548	484.251190852762	748
3	3548	484.251190852762	749
3	3552	484.290670533963	750
3	3585	490.251190852762	751
3	3585	490.251190852762	752
3	3591	490.290670533963	753
3	3617	496.251190852762	754
3	3617	496.251190852762	755
3	3621	496.290670533963	756
3	3649	502.251190852762	757
3	3649	502.251190852762	758
3	3654	502.290670533963	759
3	3659	502.341614967172	760
3	3675	504.341614967172	761
3	3687	506.341614967172	762
3	3696	506.841614967172	763
3	3719	508.341614967172	764
3	3732	510.341614967172	765
3	3742	511.341614967172	766
3	3762	512.341614967172	767
3	3768	514.341614967172	768
3	3780	515.841614967172	769
3	3795	516.341614967172	770
3	3806	518.341614967172	771
3	3821	520.341614967172	772
3	3822	520.341614967172	773
3	3843	522.341614967172	774
3	3849	524.341614967172	775
3	3859	524.841614967172	776
3	3881	526.341614967172	777
3	3887	528.341614967172	778
3	3897	529.341614967172	779
3	3919	530.341614967172	780
3	3924	532.341614967172	781
3	3935	533.841614967172	782
3	3950	534.341614967172	783
3	3962	536.341614967172	784
3	3976	538.341614967172	785
3	3977	538.341614967172	786
3	4000	540.341614967172	787
3	4005	542.341614967172	788
3	4015	542.841614967172	789
3	4036	544.341614967172	790
3	4043	546.341614967172	791
3	4053	547.341614967172	792
3	4074	548.341614967172	793
3	4081	550.341614967172	794
3	4091	551.841614967172	795
3	4106	552.341614967172	796
3	4117	554.341614967172	797
3	4132	556.341614967172	798
3	4133	556.341614967172	799
3	4155	558.341614967172	800
3	4162	560.341614967172	801
3	4172	560.841614967172	802
3	4192	562.341614967172	803
3	4198	564.341614967172	804
3	4210	565.341614967172	805
3	4230	566.341614967172	806
3	4236	568.341614967172	807
3	4246	569.841614967172	808
3	4263	570.341614967172	809
3	4273	572.341614967172	810
3	4287	574.341614967172	811
3	4288	574.341614967172	812
3	4311	576.341614967172	813
3	4317	578.341614967172	814
3	4327	578.841614967172	815
3	4349	580.341614967172	816
3	4354	582.341614967172	817
3	4365	583.341614967172	818
3	4385	584.341614967172	819
3	4392	586.341614967172	820
3	4402	587.841614967172	821
3	4418	588.341614967172	822
3	4430	590.341614967172	823
3	4443	592.341614967172	824
3	4444	592.341614967172	825
3	4466	594.341614967172	826
3	4473	596.341614967172	827
3	4483	596.841614967172	828
3	4504	598.341614967172	829
3	4511	600.341614967172	830
3	4521	601.341614967172	831
3	4541	602.341614967172	832
3	4547	604.341614967172	833
3	4559	605.841614967172	834
3	4574	606.341614967172	835
3	4585	608.341614967172	836
3	4600	610.341614967172	837
3	4601	610.341614967172	838
3	4622	612.341614967172	839
3	4628	614.341614967172	840
3	4638	614.841614967172	841
3	4660	616.341614967172	842
3	4666	618.341614967172	843
3	4676	619.341614967172	844
3	4698	620.341614967172	845
3	4703	622.341614967172	846
3	4714	623.841614967172	847
3	4729	624.341614967172	848
3	4741	626.341614967172	849
3	4755	628.341614967172	850
3	4756	628.341614967172	851
3	4779	630.341614967172	852
3	4784	632.341614967172	853
3	4794	632.841614967172	854
3	4815	634.341614967172	855
3	4822	636.341614967172	856
3	4832	637.341614967172	857
3	4853	638.341614967172	858
3	4860	640.341614967172	859
3	4870	641.841614967172	860
3	4885	642.341614967172	861
3	4896	644.341614967172	862
3	4911	646.341614967172	863
3	4912	646.341614967172	864
3	4934	648.341614967172	865
3	4941	650.341614967172	866
3	4951	650.841614967172	867
3	4971	652.341614967172	868
3	4977	654.341614967172	869
3	4989	655.341614967172	870
3	5009	656.341614967172	871
3	5015	658.341614967172	872
3	5025	659.841614967172	873
3	5042	660.341614967172	874
3	5052	662.341614967172	875
3	5066	664.341614967172	876
3	5067	664.341614967172	877
3	5090	666.341614967172	878
3	5096	668.341614967172	879
3	5106	668.841614967172	880
3	5128	670.341614967172	881
3	5133	672.341614967172	882
3	5144	673.341614967172	883
3	5164	674.341614967172	884
3	5171	676.341614967172	885
3	5181	677.841614967172	886
3	5197	678.341614967172	887
3	5209	680.341614967172	888
3	5222	682.341614967172	889
3	5223	682.341614967172	890
3	5245	684.341614967172	891
3	5252	686.341614967172	892
3	5262	686.841614967172	893
3	5283	688.341614967172	894
3	5290	690.341614967172	895
3	5300	691.341614967172	896
3	5320	692.341614967172	897
3	5326	694.341614967172	898
3	5338	695.841614967172	899
3	5353	696.341614967172	900
3	5364	698.341614967172	901
3	5379	700.341614967172	902
3	5380	700.341614967172	903
3	5401	702.341614967172	904
3	5407	704.341614967172	905
3	5417	704.841614967172	906
3	5439	706.341614967172	907
3	5445	708.341614967172	908
3	5455	709.341614967172	909
3	5477	710.341614967172	910
3	5482	712.341614967172	911
3	5493	713.841614967172	912
3	5508	714.341614967172	913
3	5520	716.341614967172	914
3	5534	718.341614967172	915
3	5535	718.341614967172	916
3	5558	720.341614967172	917
3	5563	722.341614967172	918
3	5573	722.841614967172	919
3	5594	724.341614967172	920
3	5601	726.341614967172	921
3	5611	727.341614967172	922
3	5632	728.341614967172	923
3	5639	730.341614967172	924
3	5649	731.841614967172	925
3	5664	732.341614967172	926
3	5675	734.341614967172	927
3	5690	736.341614967172	928
3	5691	736.341614967172	929
3	5713	738.341614967172	930
3	5720	740.341614967172	931
3	5730	740.841614967172	932
3	5750	742.341614967172	933
3	5756	744.341614967172	934
3	5768	745.341614967172	935
3	5788	746.341614967172	936
3	5794	748.341614967172	937
3	5804	749.841614967172	938
3	5821	750.341614967172	939
3	5831	752.341614967172	940
3	5845	754.341614967172	941
3	5846	754.341614967172	942
3	5869	756.341614967172	943
3	5875	758.341614967172	944
3	5885	758.841614967172	945
3	5907	760.341614967172	946
3	5912	762.341614967172	947
3	5923	763.341614967172	948
3	5943	764.341614967172	949
3	5950	766.341614967172	950
3	5960	767.841614967172	951
3	5976	768.341614967172	952
3	5988	770.341614967172	953
3	6001	772.341614967172	954
3	6002	772.341614967172	955
3	6024	774.341614967172	956
3	6031	776.341614967172	957
3	6041	776.841614967172	958
3	6062	778.341614967172	959
3	6069	780.341614967172	960
3	6079	781.341614967172	961
3	6099	782.341614967172	962
3	6105	784.341614967172	963
3	6117	785.841614967172	964
3	6132	786.341614967172	965
3	6143	788.341614967172	966
3	6158	790.341614967172	967
3	6159	790.341614967172	968
3	6180	792.341614967172	969
3	6186	794.341614967172	970
3	6196	794.841614967172	971
3	6218	796.341614967172	972
3	6224	798.341614967172	973
3	6234	799.341614967172	974
3	6256	800.341614967172	975
3	6261	802.341614967172	976
3	6272	803.841614967172	977
3	6287	804.341614967172	978
3	6299	806.341614967172	979
3	6313	808.341614967172	980
3	6314	808.341614967172	981
3	6337	810.341614967172	982
3	6342	812.341614967172	983
3	6352	812.841614967172	984
3	6373	814.341614967172	985
3	6695	852.341614967172	986
3	6705	853.341614967172	987
3	6725	854.341614967172	988
3	6735	860.338885581591	989
3	6740	860.397277993063	990
3	6759	862.397277993063	991
3	6774	864.397277993063	992
3	6782	864.897277993063	993
3	6808	866.397277993063	994
3	6814	868.397277993063	995
3	6819	869.397277993063	996
3	6844	870.397277993063	997
3	6852	872.397277993063	998
3	6857	873.897277993063	999
3	6877	874.397277993063	1000
3	6890	876.397277993063	1001
3	6897	878.397277993063	1002
3	6898	878.397277993063	1003
3	6925	880.397277993063	1004
3	6933	882.397277993063	1005
3	6938	882.897277993063	1006
3	6963	884.397277993063	1007
3	6971	886.397277993063	1008
3	6976	887.397277993063	1009
3	7001	888.397277993063	1010
3	7006	890.397277993063	1011
3	7014	891.897277993063	1012
3	7034	892.397277993063	1013
3	7044	894.397277993063	1014
3	7054	896.397277993063	1015
3	7055	896.397277993063	1016
3	7082	898.397277993063	1017
3	7087	900.397277993063	1018
3	7092	900.897277993063	1019
3	7120	902.397277993063	1020
3	7125	904.397277993063	1021
3	7130	905.397277993063	1022
3	7158	906.397277993063	1023
3	7163	908.397277993063	1024
3	7168	909.897277993063	1025
3	7188	910.397277993063	1026
3	7201	912.397277993063	1027
3	7208	914.397277993063	1028
3	7209	914.397277993063	1029
3	7239	916.397277993063	1030
3	7245	918.397277993063	1031
3	7249	918.897277993063	1032
3	7275	920.397277993063	1033
3	7283	922.397277993063	1034
3	7288	923.397277993063	1035
3	7313	924.397277993063	1036
3	7321	926.397277993063	1037
3	7326	927.897277993063	1038
3	7346	928.397277993063	1039
3	7357	930.397277993063	1040
3	7367	932.397277993063	1041
3	7368	932.397277993063	1042
3	7395	934.397277993063	1043
3	7403	936.397277993063	1044
3	7407	936.897277993063	1045
3	7433	938.397277993063	1046
3	7439	940.397277993063	1047
3	7446	941.397277993063	1048
3	7471	942.397277993063	1049
3	7476	944.397277993063	1050
3	7481	945.897277993063	1051
3	7504	946.397277993063	1052
3	7514	948.397277993063	1053
3	7521	950.397277993063	1054
3	7522	950.397277993063	1055
3	7602	959.397277993063	1056
3	7627	960.397277993063	1057
3	7634	962.397277993063	1058
3	7639	963.897277993063	1059
3	7660	964.397277993063	1060
3	7672	966.397277993063	1061
3	7679	968.397277993063	1062
3	7680	968.397277993063	1063
3	7708	970.397277993063	1064
3	7715	972.397277993063	1065
3	7720	972.897277993063	1066
3	7746	974.397277993063	1067
3	7753	976.397277993063	1068
3	7758	977.397277993063	1069
3	7783	978.397277993063	1070
3	7789	980.397277993063	1071
3	7796	981.897277993063	1072
3	7816	982.397277993063	1073
3	7827	984.397277993063	1074
3	7836	986.397277993063	1075
3	7837	986.397277993063	1076
3	7864	988.397277993063	1077
3	7870	990.397277993063	1078
3	7875	990.897277993063	1079
3	7902	992.397277993063	1080
3	7908	994.397277993063	1081
3	7913	995.397277993063	1082
3	7940	996.397277993063	1083
3	7945	998.397277993063	1084
3	7951	999.897277993063	1085
3	7971	1000.397277993063	1086
3	7983	1002.397277993063	1087
3	7991	1004.397277993063	1088
3	7992	1004.397277993063	1089
3	8021	1006.397277993063	1090
3	8026	1008.397277993063	1091
3	8031	1008.897277993063	1092
3	8057	1010.397277993063	1093
3	8064	1012.397277993063	1094
3	8069	1013.397277993063	1095
3	8095	1014.397277993063	1096
3	8102	1016.397277993063	1097
3	8107	1017.897277993063	1098
3	8127	1018.397277993063	1099
3	8138	1020.397277993063	1100
3	8147	1022.397277993063	1101
3	8148	1022.397277993063	1102
3	8176	1024.397277993063	1103
3	8183	1026.397277993063	1104
3	8188	1026.897277993063	1105
3	8213	1028.397277993063	1106
3	8219	1030.397277993063	1107
3	8226	1031.397277993063	1108
3	8251	1032.397277993063	1109
3	8257	1034.397277993063	1110
3	8262	1035.897277993063	1111
3	8284	1036.397277993063	1112
3	8294	1038.397277993063	1113
3	8302	1040.397277993063	1114
3	8303	1040.397277993063	1115
3	8332	1042.397277993063	1116
3	8338	1044.397277993063	1117
3	8343	1044.897277993063	1118
3	8370	1046.397277993063	1119
3	8375	1048.397277993063	1120
3	8381	1049.397277993063	1121
3	8406	1050.397277993063	1122
3	8413	1052.397277993063	1123
3	8418	1053.897277993063	1124
3	8439	1054.397277993063	1125
3	8451	1056.397277993063	1126
3	8458	1058.397277993063	1127
3	8459	1058.397277993063	1128
3	8487	1060.397277993063	1129
3	8494	1062.397277993063	1130
3	8499	1062.897277993063	1131
3	8525	1064.397277993063	1132
3	8532	1066.397277993063	1133
3	8537	1067.397277993063	1134
3	8562	1068.397277993063	1135
3	8568	1070.397277993063	1136
3	8575	1071.897277993063	1137
3	8595	1072.397277993063	1138
3	8606	1074.397277993063	1139
3	8615	1076.397277993063	1140
3	8616	1076.397277993063	1141
3	8643	1078.397277993063	1142
3	8649	1080.397277993063	1143
3	8654	1080.897277993063	1144
3	8681	1082.397277993063	1145
3	8687	1084.397277993063	1146
3	8692	1085.397277993063	1147
3	8719	1086.397277993063	1148
3	8724	1088.397277993063	1149
3	8730	1089.897277993063	1150
3	8750	1090.397277993063	1151
3	8762	1092.397277993063	1152
3	8770	1094.397277993063	1153
3	8771	1094.397277993063	1154
3	8800	1096.397277993063	1155
3	8805	1098.397277993063	1156
3	8810	1098.897277993063	1157
3	8836	1100.397277993063	1158
3	8843	1102.397277993063	1159
3	8848	1103.397277993063	1160
3	8874	1104.397277993063	1161
3	8881	1106.397277993063	1162
3	8886	1107.897277993063	1163
3	8906	1108.397277993063	1164
3	8917	1110.397277993063	1165
3	8926	1112.397277993063	1166
3	8927	1112.397277993063	1167
3	8955	1114.397277993063	1168
3	8962	1116.397277993063	1169
3	8967	1116.897277993063	1170
3	8992	1118.397277993063	1171
3	8998	1120.397277993063	1172
3	9005	1121.397277993063	1173
3	9030	1122.397277993063	1174
3	9036	1124.397277993063	1175
3	9041	1125.897277993063	1176
3	9063	1126.397277993063	1177
3	9073	1128.397277993063	1178
3	9081	1130.397277993063	1179
3	9082	1130.397277993063	1180
3	9111	1132.397277993063	1181
3	9117	1134.397277993063	1182
3	9122	1134.897277993063	1183
3	9149	1136.397277993063	1184
3	9154	1138.397277993063	1185
3	9160	1139.397277993063	1186
3	9185	1140.397277993063	1187
3	9192	1142.397277993063	1188
3	9197	1143.897277993063	1189
3	9218	1144.397277993063	1190
3	9230	1146.397277993063	1191
3	9237	1148.397277993063	1192
3	9238	1148.397277993063	1193
3	9266	1150.397277993063	1194
3	9273	1152.397277993063	1195
3	9278	1152.897277993063	1196
3	9304	1154.397277993063	1197
3	9311	1156.397277993063	1198
3	9316	1157.397277993063	1199
3	9341	1158.397277993063	1200
3	9347	1160.397277993063	1201
3	9354	1161.897277993063	1202
3	9374	1162.397277993063	1203
3	9386	1164.397277993063	1204
3	9395	1166.397277993063	1205
3	9396	1166.397277993063	1206
3	9423	1168.397277993063	1207
3	9441	1172.397277993063	1208
3	9450	1174.397277993063	1209
3	9463	1175.397277993063	1210
3	9505	1176.397277993063	1211
3	9515	1178.397277993063	1212
3	9520	1179.897277993063	1213
3	9540	1180.397277993063	1214
3	9553	1182.397277993063	1215
3	9561	1184.397277993063	1216
3	9562	1184.397277993063	1217
3	9591	1186.397277993063	1218
3	9597	1188.397277993063	1219
3	9601	1188.897277993063	1220
3	9627	1190.397277993063	1221
3	9635	1192.397277993063	1222
3	9640	1193.397277993063	1223
3	9665	1194.397277993063	1224
3	9673	1196.397277993063	1225
3	9678	1197.897277993063	1226
3	9698	1198.397277993063	1227
3	9709	1200.397277993063	1228
3	9719	1202.397277993063	1229
3	9720	1202.397277993063	1230
3	9747	1204.397277993063	1231
3	9755	1206.397277993063	1232
3	9759	1206.897277993063	1233
3	9785	1208.397277993063	1234
3	9791	1210.397277993063	1235
3	9798	1211.397277993063	1236
3	9823	1212.397277993063	1237
3	9829	1214.397277993063	1238
3	9834	1215.897277993063	1239
3	9856	1216.397277993063	1240
3	9867	1218.397277993063	1241
3	9875	1220.397277993063	1242
3	9876	1220.397277993063	1243
3	9905	1222.397277993063	1244
3	9911	1224.397277993063	1245
3	9915	1224.897277993063	1246
3	9943	1226.397277993063	1247
3	9949	1228.397277993063	1248
3	9954	1229.397277993063	1249
3	9979	1230.397277993063	1250
3	9987	1232.397277993063	1251
3	9992	1233.897277993063	1252
3	10012	1234.397277993063	1253
3	10025	1236.397277993063	1254
3	10032	1238.397277993063	1255
3	10033	1238.397277993063	1256
3	10060	1240.397277993063	1257
3	10068	1242.397277993063	1258
3	10073	1242.897277993063	1259
3	10098	1244.397277993063	1260
3	10106	1246.397277993063	1261
3	10111	1247.397277993063	1262
3	10136	1248.397277993063	1263
3	10141	1250.397277993063	1264
3	10149	1251.897277993063	1265
3	10169	1252.397277993063	1266
3	10179	1254.397277993063	1267
3	10189	1256.397277993063	1268
3	10190	1256.397277993063	1269
3	10217	1258.397277993063	1270
3	10222	1260.397277993063	1271
3	10227	1260.897277993063	1272
3	10256	1262.397277993063	1273
3	10262	1264.397277993063	1274
3	10267	1265.397277993063	1275
3	10294	1266.397277993063	1276
3	10300	1268.397277993063	1277
3	10305	1269.897277993063	1278
3	10325	1270.397277993063	1279
3	10338	1272.397277993063	1280
3	10345	1274.397277993063	1281
3	10346	1274.397277993063	1282
3	10375	1276.397277993063	1283
3	10381	1278.397277993063	1284
3	10386	1278.897277993063	1285
3	10411	1280.397277993063	1286
3	10418	1282.397277993063	1287
3	10424	1283.397277993063	1288
3	10449	1284.397277993063	1289
3	10456	1286.397277993063	1290
3	10461	1287.897277993063	1291
3	10482	1288.397277993063	1292
3	10492	1290.397277993063	1293
3	10501	1292.397277993063	1294
3	10502	1292.397277993063	1295
3	10530	1294.397277993063	1296
3	10537	1296.397277993063	1297
3	10542	1296.897277993063	1298
3	10568	1298.397277993063	1299
3	10573	1300.397277993063	1300
3	10580	1301.397277993063	1301
3	10605	1302.397277993063	1302
3	10611	1304.397277993063	1303
3	10616	1305.897277993063	1304
3	10638	1306.397277993063	1305
3	10649	1308.397277993063	1306
3	10656	1310.397277993063	1307
3	10657	1310.397277993063	1308
3	10686	1312.397277993063	1309
3	10692	1314.397277993063	1310
3	10697	1314.897277993063	1311
3	10724	1316.397277993063	1312
3	10730	1318.397277993063	1313
3	10735	1319.397277993063	1314
3	10760	1320.397277993063	1315
3	10767	1322.397277993063	1316
3	10773	1323.897277993063	1317
3	10793	1324.397277993063	1318
3	10805	1326.397277993063	1319
3	10813	1328.397277993063	1320
3	10814	1328.397277993063	1321
3	10841	1330.397277993063	1322
3	10848	1332.397277993063	1323
3	10853	1332.897277993063	1324
3	10879	1334.397277993063	1325
3	10886	1336.397277993063	1326
3	10891	1337.397277993063	1327
3	10917	1338.397277993063	1328
3	10922	1340.397277993063	1329
3	10929	1341.897277993063	1330
3	10949	1342.397277993063	1331
3	10960	1344.397277993063	1332
3	10969	1346.397277993063	1333
3	10970	1346.397277993063	1334
3	10998	1348.397277993063	1335
3	11003	1350.397277993063	1336
3	11008	1350.897277993063	1337
3	11035	1352.397277993063	1338
3	11041	1354.397277993063	1339
3	11046	1355.397277993063	1340
3	11073	1356.397277993063	1341
3	11079	1358.397277993063	1342
3	11084	1359.897277993063	1343
3	11104	1360.397277993063	1344
3	11116	1362.397277993063	1345
3	11124	1364.397277993063	1346
3	11125	1364.397277993063	1347
3	11154	1366.397277993063	1348
3	11160	1368.397277993063	1349
3	11165	1368.897277993063	1350
3	11190	1370.397277993063	1351
3	11197	1372.397277993063	1352
3	11203	1373.397277993063	1353
3	11228	1374.397277993063	1354
3	11235	1376.397277993063	1355
3	11240	1377.897277993063	1356
3	11261	1378.397277993063	1357
3	11271	1380.397277993063	1358
3	11280	1382.397277993063	1359
3	11281	1382.397277993063	1360
3	11309	1384.397277993063	1361
3	11316	1386.397277993063	1362
3	11321	1386.897277993063	1363
3	11347	1388.397277993063	1364
3	11352	1390.397277993063	1365
3	11359	1391.397277993063	1366
3	11384	1392.397277993063	1367
3	11390	1394.397277993063	1368
3	11395	1395.897277993063	1369
3	11417	1396.397277993063	1370
3	11428	1398.397277993063	1371
3	11435	1400.397277993063	1372
3	11436	1400.397277993063	1373
3	11465	1402.397277993063	1374
3	11471	1404.397277993063	1375
3	11476	1404.897277993063	1376
3	11503	1406.397277993063	1377
3	11509	1408.397277993063	1378
3	11514	1409.397277993063	1379
3	11539	1410.397277993063	1380
3	11546	1412.397277993063	1381
3	11552	1413.897277993063	1382
3	11572	1414.397277993063	1383
3	11584	1416.397277993063	1384
3	11592	1418.397277993063	1385
3	11593	1418.397277993063	1386
3	11620	1420.397277993063	1387
3	11627	1422.397277993063	1388
3	11632	1422.897277993063	1389
3	11658	1424.397277993063	1390
3	11665	1426.397277993063	1391
3	11670	1427.397277993063	1392
3	11696	1428.397277993063	1393
3	11701	1430.397277993063	1394
3	11708	1431.897277993063	1395
3	11728	1432.397277993063	1396
3	11739	1434.397277993063	1397
3	11748	1436.397277993063	1398
3	11749	1436.397277993063	1399
3	11777	1438.397277993063	1400
3	11782	1440.397277993063	1401
3	11787	1440.897277993063	1402
3	11814	1442.397277993063	1403
3	11820	1444.397277993063	1404
3	11825	1445.397277993063	1405
3	11852	1446.397277993063	1406
3	11858	1448.397277993063	1407
3	11863	1449.897277993063	1408
3	11883	1450.397277993063	1409
3	11895	1452.397277993063	1410
3	11903	1454.397277993063	1411
3	11904	1454.397277993063	1412
3	11933	1456.397277993063	1413
3	11939	1458.397277993063	1414
3	11944	1458.897277993063	1415
3	11969	1460.397277993063	1416
3	11976	1462.397277993063	1417
3	11982	1463.397277993063	1418
3	12007	1464.397277993063	1419
3	12014	1466.397277993063	1420
3	12019	1467.897277993063	1421
3	12040	1468.397277993063	1422
3	12050	1470.397277993063	1423
3	12059	1472.397277993063	1424
3	12060	1472.397277993063	1425
3	12088	1474.397277993063	1426
3	12095	1476.397277993063	1427
3	12100	1476.897277993063	1428
3	12126	1478.397277993063	1429
3	12131	1480.397277993063	1430
3	12138	1481.397277993063	1431
3	12163	1482.397277993063	1432
3	12169	1484.397277993063	1433
3	12174	1485.897277993063	1434
3	12196	1486.397277993063	1435
3	12207	1488.397277993063	1436
3	12214	1490.397277993063	1437
3	12215	1490.397277993063	1438
3	12244	1492.397277993063	1439
3	12250	1494.397277993063	1440
3	12255	1494.897277993063	1441
3	12282	1496.397277993063	1442
3	12288	1498.397277993063	1443
3	12293	1499.397277993063	1444
3	12318	1500.397277993063	1445
3	12325	1502.397277993063	1446
3	12331	1503.897277993063	1447
3	12351	1504.397277993063	1448
3	12363	1506.397277993063	1449
3	12371	1508.397277993063	1450
3	12372	1508.397277993063	1451
3	12399	1510.397277993063	1452
3	12406	1512.397277993063	1453
3	12411	1512.897277993063	1454
3	12437	1514.397277993063	1455
3	12444	1516.397277993063	1456
3	12449	1517.397277993063	1457
3	12475	1518.397277993063	1458
3	12480	1520.397277993063	1459
3	12487	1521.897277993063	1460
3	12507	1522.397277993063	1461
3	12518	1524.397277993063	1462
3	12527	1526.397277993063	1463
3	12528	1526.397277993063	1464
3	12556	1528.397277993063	1465
3	12561	1530.397277993063	1466
3	12566	1530.897277993063	1467
3	12593	1532.397277993063	1468
3	12599	1534.397277993063	1469
3	12604	1535.397277993063	1470
3	12631	1536.397277993063	1471
3	12637	1538.397277993063	1472
3	12642	1539.897277993063	1473
3	12662	1540.397277993063	1474
3	12674	1542.397277993063	1475
3	12682	1544.397277993063	1476
3	12683	1544.397277993063	1477
3	12712	1546.397277993063	1478
3	12718	1548.397277993063	1479
3	12723	1548.897277993063	1480
3	12748	1550.397277993063	1481
3	12766	1556.397277993063	1482
3	12766	1556.397277993063	1483
3	12771	1556.450951811853	1484
3	12808	1562.397277993063	1485
3	12808	1562.397277993063	1486
3	12812	1562.450951811853	1487
3	12844	1568.397277993063	1488
3	12844	1568.397277993063	1489
3	12865	1574.397277993063	1490
3	12865	1574.397277993063	1491
3	12870	1574.455670404535	1492
3	12894	1580.397277993063	1493
3	12894	1580.397277993063	1494
3	12899	1580.455670404535	1495
3	12903	1580.495150085736	1496
3	12903	1580.495150085736	1497
3	12925	1582.495150085736	1498
3	12925	1582.495150085736	1499
3	12932	1584.495150085736	1500
3	12932	1584.495150085736	1501
3	12939	1584.995150085736	1502
3	12939	1584.995150085736	1503
3	12944	1585.053542497208	1504
3	12944	1585.053542497208	1505
3	12944	1585.053542497208	1506
3	12966	1586.495150085736	1507
3	12966	1586.495150085736	1508
3	12972	1588.495150085736	1509
3	12972	1588.495150085736	1510
3	12977	1589.495150085736	1511
3	12977	1589.495150085736	1512
3	12980	1589.553542497208	1513
3	12980	1589.553542497208	1514
3	12980	1589.553542497208	1515
3	12980	1589.553542497208	1516
3	12980	1589.553542497208	1517
3	13003	1590.495150085736	1518
3	13003	1590.495150085736	1519
3	13009	1592.495150085736	1520
3	13009	1592.495150085736	1521
3	13015	1593.995150085736	1522
3	13015	1593.995150085736	1523
3	13018	1594.053542497208	1524
3	13018	1594.053542497208	1525
3	13018	1594.053542497208	1526
3	13018	1594.053542497208	1527
3	13018	1594.053542497208	1528
3	13035	1594.495150085736	1529
3	13035	1594.495150085736	1530
3	13047	1596.495150085736	1531
3	13047	1596.495150085736	1532
3	13053	1598.495150085736	1533
3	13053	1598.495150085736	1534
3	13054	1598.495150085736	1535
3	13054	1598.495150085736	1536
3	13059	1598.553542497208	1537
3	13059	1598.553542497208	1538
3	13059	1598.553542497208	1539
3	13059	1598.553542497208	1540
3	13059	1598.553542497208	1541
3	13084	1600.495150085736	1542
3	13084	1600.495150085736	1543
3	13090	1602.495150085736	1544
3	13090	1602.495150085736	1545
3	13095	1602.995150085736	1546
3	13095	1602.995150085736	1547
3	13099	1603.053542497208	1548
3	13099	1603.053542497208	1549
3	13099	1603.053542497208	1550
3	13099	1603.053542497208	1551
3	13099	1603.053542497208	1552
3	13121	1604.495150085736	1553
3	13121	1604.495150085736	1554
3	13128	1606.495150085736	1555
3	13128	1606.495150085736	1556
3	13133	1607.495150085736	1557
3	13133	1607.495150085736	1558
3	13136	1607.553542497208	1559
3	13136	1607.553542497208	1560
3	13136	1607.553542497208	1561
3	13136	1607.553542497208	1562
3	13136	1607.553542497208	1563
3	13159	1608.495150085736	1564
3	13159	1608.495150085736	1565
3	13165	1610.495150085736	1566
3	13165	1610.495150085736	1567
3	13171	1611.995150085736	1568
3	13171	1611.995150085736	1569
3	13174	1612.053542497208	1570
3	13174	1612.053542497208	1571
3	13174	1612.053542497208	1572
3	13174	1612.053542497208	1573
3	13174	1612.053542497208	1574
3	13191	1612.495150085736	1575
3	13191	1612.495150085736	1576
3	13202	1614.495150085736	1577
3	13202	1614.495150085736	1578
3	13209	1616.495150085736	1579
3	13209	1616.495150085736	1580
3	13210	1616.495150085736	1581
3	13210	1616.495150085736	1582
3	13215	1616.553542497208	1583
3	13215	1616.553542497208	1584
3	13215	1616.553542497208	1585
3	13215	1616.553542497208	1586
3	13215	1616.553542497208	1587
3	13240	1618.495150085736	1588
3	13240	1618.495150085736	1589
3	13246	1620.495150085736	1590
3	13246	1620.495150085736	1591
3	13251	1620.995150085736	1592
3	13251	1620.995150085736	1593
3	13255	1621.053542497208	1594
3	13255	1621.053542497208	1595
3	13255	1621.053542497208	1596
3	13255	1621.053542497208	1597
3	13255	1621.053542497208	1598
3	13277	1622.495150085736	1599
3	13277	1622.495150085736	1600
3	13283	1624.495150085736	1601
3	13283	1624.495150085736	1602
3	13289	1625.495150085736	1603
3	13289	1625.495150085736	1604
3	13292	1625.553542497208	1605
3	13292	1625.553542497208	1606
3	13292	1625.553542497208	1607
3	13292	1625.553542497208	1608
3	13292	1625.553542497208	1609
3	13315	1626.495150085736	1610
3	13315	1626.495150085736	1611
3	13321	1628.495150085736	1612
3	13321	1628.495150085736	1613
3	13326	1629.995150085736	1614
3	13326	1629.995150085736	1615
3	13330	1630.053542497208	1616
3	13330	1630.053542497208	1617
3	13330	1630.053542497208	1618
3	13330	1630.053542497208	1619
3	13330	1630.053542497208	1620
3	13347	1630.495150085736	1621
3	13347	1630.495150085736	1622
3	13358	1632.495150085736	1623
3	13358	1632.495150085736	1624
3	13364	1634.495150085736	1625
3	13364	1634.495150085736	1626
3	13365	1634.495150085736	1627
3	13365	1634.495150085736	1628
3	13370	1634.553542497208	1629
3	13370	1634.553542497208	1630
3	13370	1634.553542497208	1631
3	13370	1634.553542497208	1632
3	13370	1634.553542497208	1633
3	13396	1636.495150085736	1634
3	13396	1636.495150085736	1635
3	13402	1638.495150085736	1636
3	13402	1638.495150085736	1637
3	13407	1638.995150085736	1638
3	13407	1638.995150085736	1639
3	13410	1639.053542497208	1640
3	13410	1639.053542497208	1641
3	13410	1639.053542497208	1642
3	13410	1639.053542497208	1643
3	13410	1639.053542497208	1644
3	13433	1640.495150085736	1645
3	13433	1640.495150085736	1646
3	13439	1642.495150085736	1647
3	13439	1642.495150085736	1648
3	13445	1643.495150085736	1649
3	13445	1643.495150085736	1650
3	13448	1643.553542497208	1651
3	13448	1643.553542497208	1652
3	13448	1643.553542497208	1653
3	13448	1643.553542497208	1654
3	13448	1643.553542497208	1655
3	13470	1644.495150085736	1656
3	13470	1644.495150085736	1657
3	13477	1646.495150085736	1658
3	13477	1646.495150085736	1659
3	13482	1647.995150085736	1660
3	13482	1647.995150085736	1661
3	13486	1648.053542497208	1662
3	13486	1648.053542497208	1663
3	13486	1648.053542497208	1664
3	13486	1648.053542497208	1665
3	13486	1648.053542497208	1666
3	13503	1648.495150085736	1667
3	13503	1648.495150085736	1668
3	13514	1650.495150085736	1669
3	13514	1650.495150085736	1670
3	13520	1652.495150085736	1671
3	13520	1652.495150085736	1672
3	13521	1652.495150085736	1673
3	13521	1652.495150085736	1674
3	13526	1652.553542497208	1675
3	13526	1652.553542497208	1676
3	13526	1652.553542497208	1677
3	13526	1652.553542497208	1678
3	13526	1652.553542497208	1679
3	13551	1654.495150085736	1680
3	13551	1654.495150085736	1681
3	13558	1656.495150085736	1682
3	13558	1656.495150085736	1683
3	13563	1656.995150085736	1684
3	13563	1656.995150085736	1685
3	13566	1657.053542497208	1686
3	13566	1657.053542497208	1687
3	13566	1657.053542497208	1688
3	13566	1657.053542497208	1689
3	13566	1657.053542497208	1690
3	13589	1658.495150085736	1691
3	13589	1658.495150085736	1692
3	13595	1660.495150085736	1693
3	13595	1660.495150085736	1694
3	13601	1661.495150085736	1695
3	13601	1661.495150085736	1696
3	13604	1661.553542497208	1697
3	13604	1661.553542497208	1698
3	13604	1661.553542497208	1699
3	13604	1661.553542497208	1700
3	13604	1661.553542497208	1701
3	13626	1662.495150085736	1702
3	13626	1662.495150085736	1703
3	13632	1664.495150085736	1704
3	13632	1664.495150085736	1705
3	13638	1665.995150085736	1706
3	13638	1665.995150085736	1707
3	13642	1666.053542497208	1708
3	13642	1666.053542497208	1709
3	13642	1666.053542497208	1710
3	13642	1666.053542497208	1711
3	13642	1666.053542497208	1712
3	13659	1666.495150085736	1713
3	13659	1666.495150085736	1714
3	13670	1668.495150085736	1715
3	13670	1668.495150085736	1716
3	13676	1670.495150085736	1717
3	13676	1670.495150085736	1718
3	13677	1670.495150085736	1719
3	13677	1670.495150085736	1720
3	13682	1670.553542497208	1721
3	13682	1670.553542497208	1722
3	13682	1670.553542497208	1723
3	13682	1670.553542497208	1724
3	13682	1670.553542497208	1725
3	13707	1672.495150085736	1726
3	13707	1672.495150085736	1727
3	13714	1674.495150085736	1728
3	13714	1674.495150085736	1729
3	13718	1674.995150085736	1730
3	13718	1674.995150085736	1731
3	13722	1675.053542497208	1732
3	13722	1675.053542497208	1733
3	13722	1675.053542497208	1734
3	13722	1675.053542497208	1735
3	13722	1675.053542497208	1736
3	13745	1676.495150085736	1737
3	13745	1676.495150085736	1738
3	13752	1678.495150085736	1739
3	13752	1678.495150085736	1740
3	13757	1679.495150085736	1741
3	13757	1679.495150085736	1742
3	13760	1679.553542497208	1743
3	13760	1679.553542497208	1744
3	13760	1679.553542497208	1745
3	13760	1679.553542497208	1746
3	13760	1679.553542497208	1747
3	13782	1680.495150085736	1748
3	13782	1680.495150085736	1749
3	13789	1682.495150085736	1750
3	13789	1682.495150085736	1751
3	13795	1683.995150085736	1752
3	13795	1683.995150085736	1753
3	13799	1684.053542497208	1754
3	13799	1684.053542497208	1755
3	13799	1684.053542497208	1756
3	13799	1684.053542497208	1757
3	13799	1684.053542497208	1758
3	13815	1684.495150085736	1759
3	13815	1684.495150085736	1760
3	13827	1686.495150085736	1761
3	13827	1686.495150085736	1762
3	13833	1688.495150085736	1763
3	13833	1688.495150085736	1764
3	13834	1688.495150085736	1765
3	13834	1688.495150085736	1766
3	13839	1688.553542497208	1767
3	13839	1688.553542497208	1768
3	13839	1688.553542497208	1769
3	13839	1688.553542497208	1770
3	13839	1688.553542497208	1771
3	13863	1690.495150085736	1772
3	13863	1690.495150085736	1773
3	13870	1692.495150085736	1774
3	13870	1692.495150085736	1775
3	13875	1692.995150085736	1776
3	13875	1692.995150085736	1777
3	13879	1693.053542497208	1778
3	13879	1693.053542497208	1779
3	13879	1693.053542497208	1780
3	13879	1693.053542497208	1781
3	13879	1693.053542497208	1782
3	13901	1694.495150085736	1783
3	13901	1694.495150085736	1784
3	13907	1696.495150085736	1785
3	13907	1696.495150085736	1786
3	13913	1697.495150085736	1787
3	13913	1697.495150085736	1788
3	13916	1697.553542497208	1789
3	13916	1697.553542497208	1790
3	13916	1697.553542497208	1791
3	13916	1697.553542497208	1792
3	13916	1697.553542497208	1793
3	13939	1698.495150085736	1794
3	13939	1698.495150085736	1795
3	13944	1700.495150085736	1796
3	13944	1700.495150085736	1797
3	13950	1701.995150085736	1798
3	13950	1701.995150085736	1799
3	13954	1702.053542497208	1800
3	13954	1702.053542497208	1801
3	13954	1702.053542497208	1802
3	13954	1702.053542497208	1803
3	13954	1702.053542497208	1804
3	13971	1702.495150085736	1805
3	13971	1702.495150085736	1806
3	13982	1704.495150085736	1807
3	13982	1704.495150085736	1808
3	13988	1706.495150085736	1809
3	13988	1706.495150085736	1810
3	13989	1706.495150085736	1811
3	13989	1706.495150085736	1812
3	13994	1706.553542497208	1813
3	13994	1706.553542497208	1814
3	13994	1706.553542497208	1815
3	13994	1706.553542497208	1816
3	13994	1706.553542497208	1817
3	14020	1708.495150085736	1818
3	14020	1708.495150085736	1819
3	14025	1710.495150085736	1820
3	14025	1710.495150085736	1821
3	14030	1710.995150085736	1822
3	14030	1710.995150085736	1823
3	14034	1711.053542497208	1824
3	14034	1711.053542497208	1825
3	14034	1711.053542497208	1826
3	14034	1711.053542497208	1827
3	14034	1711.053542497208	1828
3	14057	1712.495150085736	1829
3	14057	1712.495150085736	1830
3	14063	1714.495150085736	1831
3	14063	1714.495150085736	1832
3	14068	1715.495150085736	1833
3	14068	1715.495150085736	1834
3	14071	1715.553542497208	1835
3	14071	1715.553542497208	1836
3	14071	1715.553542497208	1837
3	14071	1715.553542497208	1838
3	14071	1715.553542497208	1839
3	14094	1716.495150085736	1840
3	14094	1716.495150085736	1841
3	14101	1718.495150085736	1842
3	14101	1718.495150085736	1843
3	14106	1719.995150085736	1844
3	14106	1719.995150085736	1845
3	14109	1720.053542497208	1846
3	14109	1720.053542497208	1847
3	14109	1720.053542497208	1848
3	14109	1720.053542497208	1849
3	14109	1720.053542497208	1850
3	14126	1720.495150085736	1851
3	14126	1720.495150085736	1852
3	14138	1722.495150085736	1853
3	14138	1722.495150085736	1854
3	14144	1724.495150085736	1855
3	14144	1724.495150085736	1856
3	14145	1724.495150085736	1857
3	14145	1724.495150085736	1858
3	14150	1724.553542497208	1859
3	14150	1724.553542497208	1860
3	14150	1724.553542497208	1861
3	14150	1724.553542497208	1862
3	14150	1724.553542497208	1863
3	14175	1726.495150085736	1864
3	14175	1726.495150085736	1865
3	14182	1728.495150085736	1866
3	14182	1728.495150085736	1867
3	14187	1728.995150085736	1868
3	14187	1728.995150085736	1869
3	14190	1729.053542497208	1870
3	14190	1729.053542497208	1871
3	14190	1729.053542497208	1872
3	14190	1729.053542497208	1873
3	14190	1729.053542497208	1874
3	14212	1730.495150085736	1875
3	14212	1730.495150085736	1876
3	14219	1732.495150085736	1877
3	14219	1732.495150085736	1878
3	14225	1733.495150085736	1879
3	14225	1733.495150085736	1880
3	14228	1733.553542497208	1881
3	14228	1733.553542497208	1882
3	14228	1733.553542497208	1883
3	14228	1733.553542497208	1884
3	14228	1733.553542497208	1885
3	14250	1734.495150085736	1886
3	14250	1734.495150085736	1887
3	14256	1736.495150085736	1888
3	14256	1736.495150085736	1889
3	14262	1737.995150085736	1890
3	14262	1737.995150085736	1891
3	14266	1738.053542497208	1892
3	14266	1738.053542497208	1893
3	14266	1738.053542497208	1894
3	14266	1738.053542497208	1895
3	14266	1738.053542497208	1896
3	14283	1738.495150085736	1897
3	14283	1738.495150085736	1898
3	14293	1740.495150085736	1899
3	14293	1740.495150085736	1900
3	14300	1742.495150085736	1901
3	14300	1742.495150085736	1902
3	14301	1742.495150085736	1903
3	14301	1742.495150085736	1904
3	14306	1742.553542497208	1905
3	14306	1742.553542497208	1906
3	14306	1742.553542497208	1907
3	14306	1742.553542497208	1908
3	14306	1742.553542497208	1909
3	14331	1744.495150085736	1910
3	14331	1744.495150085736	1911
3	14337	1746.495150085736	1912
3	14337	1746.495150085736	1913
3	14342	1746.995150085736	1914
3	14342	1746.995150085736	1915
3	14346	1747.053542497208	1916
3	14346	1747.053542497208	1917
3	14346	1747.053542497208	1918
3	14346	1747.053542497208	1919
3	14346	1747.053542497208	1920
3	14369	1748.495150085736	1921
3	14369	1748.495150085736	1922
3	14374	1750.495150085736	1923
3	14374	1750.495150085736	1924
3	14380	1751.495150085736	1925
3	14380	1751.495150085736	1926
3	14383	1751.553542497208	1927
3	14383	1751.553542497208	1928
3	14383	1751.553542497208	1929
3	14383	1751.553542497208	1930
3	14383	1751.553542497208	1931
3	14406	1752.495150085736	1932
3	14406	1752.495150085736	1933
3	14412	1754.495150085736	1934
3	14412	1754.495150085736	1935
3	14417	1755.995150085736	1936
3	14417	1755.995150085736	1937
3	14421	1756.053542497208	1938
3	14421	1756.053542497208	1939
3	14421	1756.053542497208	1940
3	14421	1756.053542497208	1941
3	14421	1756.053542497208	1942
3	14438	1756.495150085736	1943
3	14438	1756.495150085736	1944
3	14450	1758.495150085736	1945
3	14450	1758.495150085736	1946
3	14455	1760.495150085736	1947
3	14455	1760.495150085736	1948
3	14456	1760.495150085736	1949
3	14456	1760.495150085736	1950
3	14461	1760.553542497208	1951
3	14461	1760.553542497208	1952
3	14461	1760.553542497208	1953
3	14461	1760.553542497208	1954
3	14461	1760.553542497208	1955
3	14487	1762.495150085736	1956
3	14487	1762.495150085736	1957
3	14493	1764.495150085736	1958
3	14493	1764.495150085736	1959
3	14498	1764.995150085736	1960
3	14498	1764.995150085736	1961
3	14501	1765.053542497208	1962
3	14501	1765.053542497208	1963
3	14501	1765.053542497208	1964
3	14501	1765.053542497208	1965
3	14501	1765.053542497208	1966
3	14524	1766.495150085736	1967
3	14524	1766.495150085736	1968
3	14531	1768.495150085736	1969
3	14531	1768.495150085736	1970
3	14536	1769.495150085736	1971
3	14536	1769.495150085736	1972
3	14539	1769.553542497208	1973
3	14539	1769.553542497208	1974
3	14539	1769.553542497208	1975
3	14539	1769.553542497208	1976
3	14539	1769.553542497208	1977
3	14561	1770.495150085736	1978
3	14561	1770.495150085736	1979
3	14568	1772.495150085736	1980
3	14568	1772.495150085736	1981
3	14574	1773.995150085736	1982
3	14574	1773.995150085736	1983
3	14577	1774.053542497208	1984
3	14577	1774.053542497208	1985
3	14577	1774.053542497208	1986
3	14577	1774.053542497208	1987
3	14577	1774.053542497208	1988
3	14594	1774.495150085736	1989
3	14594	1774.495150085736	1990
3	14605	1776.495150085736	1991
3	14605	1776.495150085736	1992
3	14612	1778.495150085736	1993
3	14612	1778.495150085736	1994
3	14613	1778.495150085736	1995
3	14613	1778.495150085736	1996
3	14618	1778.553542497208	1997
3	14618	1778.553542497208	1998
3	14618	1778.553542497208	1999
3	14618	1778.553542497208	2000
3	14618	1778.553542497208	2001
3	14642	1780.495150085736	2002
3	14642	1780.495150085736	2003
3	14649	1782.495150085736	2004
3	14649	1782.495150085736	2005
3	14654	1782.995150085736	2006
3	14654	1782.995150085736	2007
3	14658	1783.053542497208	2008
3	14658	1783.053542497208	2009
3	14658	1783.053542497208	2010
3	14658	1783.053542497208	2011
3	14658	1783.053542497208	2012
3	14680	1784.495150085736	2013
3	14680	1784.495150085736	2014
3	14686	1786.495150085736	2015
3	14686	1786.495150085736	2016
3	14692	1787.495150085736	2017
3	14692	1787.495150085736	2018
3	14695	1787.553542497208	2019
3	14695	1787.553542497208	2020
3	14695	1787.553542497208	2021
3	14695	1787.553542497208	2022
3	14695	1787.553542497208	2023
3	14718	1788.495150085736	2024
3	14718	1788.495150085736	2025
3	14723	1790.495150085736	2026
3	14723	1790.495150085736	2027
3	14729	1791.995150085736	2028
3	14729	1791.995150085736	2029
3	14733	1792.053542497208	2030
3	14733	1792.053542497208	2031
3	14733	1792.053542497208	2032
3	14733	1792.053542497208	2033
3	14733	1792.053542497208	2034
3	14750	1792.495150085736	2035
3	14750	1792.495150085736	2036
3	14761	1794.495150085736	2037
3	14761	1794.495150085736	2038
3	14767	1796.495150085736	2039
3	14767	1796.495150085736	2040
3	14768	1796.495150085736	2041
3	14768	1796.495150085736	2042
3	14773	1796.553542497208	2043
3	14773	1796.553542497208	2044
3	14773	1796.553542497208	2045
3	14773	1796.553542497208	2046
3	14773	1796.553542497208	2047
3	14799	1798.495150085736	2048
3	14799	1798.495150085736	2049
3	14804	1800.495150085736	2050
3	14804	1800.495150085736	2051
3	14809	1800.995150085736	2052
3	14809	1800.995150085736	2053
3	14813	1801.053542497208	2054
3	14813	1801.053542497208	2055
3	14813	1801.053542497208	2056
3	14813	1801.053542497208	2057
3	14813	1801.053542497208	2058
3	14836	1802.495150085736	2059
3	14836	1802.495150085736	2060
3	14842	1804.495150085736	2061
3	14842	1804.495150085736	2062
3	14847	1805.495150085736	2063
3	14847	1805.495150085736	2064
3	14850	1805.553542497208	2065
3	14850	1805.553542497208	2066
3	14850	1805.553542497208	2067
3	14850	1805.553542497208	2068
3	14850	1805.553542497208	2069
3	14873	1806.495150085736	2070
3	14873	1806.495150085736	2071
3	14880	1808.495150085736	2072
3	14880	1808.495150085736	2073
3	14885	1809.995150085736	2074
3	14885	1809.995150085736	2075
3	14888	1810.053542497208	2076
3	14888	1810.053542497208	2077
3	14888	1810.053542497208	2078
3	14888	1810.053542497208	2079
3	14888	1810.053542497208	2080
3	14905	1810.495150085736	2081
3	14905	1810.495150085736	2082
3	14917	1812.495150085736	2083
3	14917	1812.495150085736	2084
3	14923	1814.495150085736	2085
3	14923	1814.495150085736	2086
3	14924	1814.495150085736	2087
3	14924	1814.495150085736	2088
3	14929	1814.553542497208	2089
3	14929	1814.553542497208	2090
3	14929	1814.553542497208	2091
3	14929	1814.553542497208	2092
3	14929	1814.553542497208	2093
3	14954	1816.495150085736	2094
3	14954	1816.495150085736	2095
3	14961	1818.495150085736	2096
3	14961	1818.495150085736	2097
3	14966	1818.995150085736	2098
3	14966	1818.995150085736	2099
3	14969	1819.053542497208	2100
3	14969	1819.053542497208	2101
3	14969	1819.053542497208	2102
3	14969	1819.053542497208	2103
3	14969	1819.053542497208	2104
3	14991	1820.495150085736	2105
3	14991	1820.495150085736	2106
3	14998	1822.495150085736	2107
3	14998	1822.495150085736	2108
3	15004	1823.495150085736	2109
3	15004	1823.495150085736	2110
3	15007	1823.553542497208	2111
3	15007	1823.553542497208	2112
3	15007	1823.553542497208	2113
3	15007	1823.553542497208	2114
3	15007	1823.553542497208	2115
3	15029	1824.495150085736	2116
3	15029	1824.495150085736	2117
3	15035	1826.495150085736	2118
3	15035	1826.495150085736	2119
3	15041	1827.995150085736	2120
3	15041	1827.995150085736	2121
3	15045	1828.053542497208	2122
3	15045	1828.053542497208	2123
3	15045	1828.053542497208	2124
3	15045	1828.053542497208	2125
3	15045	1828.053542497208	2126
3	15062	1828.495150085736	2127
3	15062	1828.495150085736	2128
3	15072	1830.495150085736	2129
3	15072	1830.495150085736	2130
3	15079	1832.495150085736	2131
3	15079	1832.495150085736	2132
3	15080	1832.495150085736	2133
3	15080	1832.495150085736	2134
3	15085	1832.553542497208	2135
3	15085	1832.553542497208	2136
3	15085	1832.553542497208	2137
3	15085	1832.553542497208	2138
3	15085	1832.553542497208	2139
3	15110	1834.495150085736	2140
3	15110	1834.495150085736	2141
3	15116	1836.495150085736	2142
3	15116	1836.495150085736	2143
3	15121	1836.995150085736	2144
3	15121	1836.995150085736	2145
3	15125	1837.053542497208	2146
3	15125	1837.053542497208	2147
3	15125	1837.053542497208	2148
3	15125	1837.053542497208	2149
3	15125	1837.053542497208	2150
3	15148	1838.495150085736	2151
3	15148	1838.495150085736	2152
3	15153	1840.495150085736	2153
3	15153	1840.495150085736	2154
3	15159	1841.495150085736	2155
3	15159	1841.495150085736	2156
3	15162	1841.553542497208	2157
3	15162	1841.553542497208	2158
3	15162	1841.553542497208	2159
3	15162	1841.553542497208	2160
3	15162	1841.553542497208	2161
3	15185	1842.495150085736	2162
3	15185	1842.495150085736	2163
3	15191	1844.495150085736	2164
3	15191	1844.495150085736	2165
3	15196	1845.995150085736	2166
3	15196	1845.995150085736	2167
3	15200	1846.053542497208	2168
3	15200	1846.053542497208	2169
3	15200	1846.053542497208	2170
3	15200	1846.053542497208	2171
3	15200	1846.053542497208	2172
3	15217	1846.495150085736	2173
3	15217	1846.495150085736	2174
3	15229	1848.495150085736	2175
3	15229	1848.495150085736	2176
3	15234	1850.495150085736	2177
3	15234	1850.495150085736	2178
3	15235	1850.495150085736	2179
3	15235	1850.495150085736	2180
3	15240	1850.553542497208	2181
3	15240	1850.553542497208	2182
3	15240	1850.553542497208	2183
3	15240	1850.553542497208	2184
3	15240	1850.553542497208	2185
3	15266	1852.495150085736	2186
3	15266	1852.495150085736	2187
3	15272	1854.495150085736	2188
3	15272	1854.495150085736	2189
3	15277	1854.995150085736	2190
3	15277	1854.995150085736	2191
3	15280	1855.053542497208	2192
3	15280	1855.053542497208	2193
3	15280	1855.053542497208	2194
3	15280	1855.053542497208	2195
3	15280	1855.053542497208	2196
3	15303	1856.495150085736	2197
3	15303	1856.495150085736	2198
3	15310	1858.495150085736	2199
3	15310	1858.495150085736	2200
3	15315	1859.495150085736	2201
3	15315	1859.495150085736	2202
3	15318	1859.553542497208	2203
3	15318	1859.553542497208	2204
3	15318	1859.553542497208	2205
3	15318	1859.553542497208	2206
3	15318	1859.553542497208	2207
3	15340	1860.495150085736	2208
3	15340	1860.495150085736	2209
3	15347	1862.495150085736	2210
3	15347	1862.495150085736	2211
3	15353	1863.995150085736	2212
3	15353	1863.995150085736	2213
3	15356	1864.053542497208	2214
3	15356	1864.053542497208	2215
3	15356	1864.053542497208	2216
3	15356	1864.053542497208	2217
3	15356	1864.053542497208	2218
3	15373	1864.495150085736	2219
3	15373	1864.495150085736	2220
3	15384	1866.495150085736	2221
3	15384	1866.495150085736	2222
3	15391	1868.495150085736	2223
3	15391	1868.495150085736	2224
3	15392	1868.495150085736	2225
3	15392	1868.495150085736	2226
3	15397	1868.553542497208	2227
3	15397	1868.553542497208	2228
3	15397	1868.553542497208	2229
3	15397	1868.553542497208	2230
3	15397	1868.553542497208	2231
3	15421	1870.495150085736	2232
3	15421	1870.495150085736	2233
3	15428	1872.495150085736	2234
3	15428	1872.495150085736	2235
3	15433	1872.995150085736	2236
3	15433	1872.995150085736	2237
3	15437	1873.053542497208	2238
3	15437	1873.053542497208	2239
3	15437	1873.053542497208	2240
3	15437	1873.053542497208	2241
3	15437	1873.053542497208	2242
3	15459	1874.495150085736	2243
3	15459	1874.495150085736	2244
3	15465	1876.495150085736	2245
3	15465	1876.495150085736	2246
3	15471	1877.495150085736	2247
3	15471	1877.495150085736	2248
3	15474	1877.553542497208	2249
3	15474	1877.553542497208	2250
3	15474	1877.553542497208	2251
3	15474	1877.553542497208	2252
3	15474	1877.553542497208	2253
3	15497	1878.495150085736	2254
3	15497	1878.495150085736	2255
3	15502	1880.495150085736	2256
3	15502	1880.495150085736	2257
3	15508	1881.995150085736	2258
3	15508	1881.995150085736	2259
3	15512	1882.053542497208	2260
3	15512	1882.053542497208	2261
3	15512	1882.053542497208	2262
3	15512	1882.053542497208	2263
3	15512	1882.053542497208	2264
3	15529	1882.495150085736	2265
3	15529	1882.495150085736	2266
3	15540	1884.495150085736	2267
3	15540	1884.495150085736	2268
3	15546	1886.495150085736	2269
3	15546	1886.495150085736	2270
3	15547	1886.495150085736	2271
3	15547	1886.495150085736	2272
3	15552	1886.553542497208	2273
3	15552	1886.553542497208	2274
3	15552	1886.553542497208	2275
3	15552	1886.553542497208	2276
3	15552	1886.553542497208	2277
3	15578	1888.495150085736	2278
3	15578	1888.495150085736	2279
3	15583	1890.495150085736	2280
3	15583	1890.495150085736	2281
3	15588	1890.995150085736	2282
3	15588	1890.995150085736	2283
3	15592	1891.053542497208	2284
3	15592	1891.053542497208	2285
3	15592	1891.053542497208	2286
3	15592	1891.053542497208	2287
3	15592	1891.053542497208	2288
3	15615	1892.495150085736	2289
3	15615	1892.495150085736	2290
3	15621	1894.495150085736	2291
3	15621	1894.495150085736	2292
3	15626	1895.495150085736	2293
3	15626	1895.495150085736	2294
3	15629	1895.553542497208	2295
3	15629	1895.553542497208	2296
3	15629	1895.553542497208	2297
3	15629	1895.553542497208	2298
3	15629	1895.553542497208	2299
3	15652	1896.495150085736	2300
3	15652	1896.495150085736	2301
3	15659	1898.495150085736	2302
3	15659	1898.495150085736	2303
3	15664	1899.995150085736	2304
3	15664	1899.995150085736	2305
3	15668	1900.093022178409	2306
3	15668	1900.093022178409	2307
3	15668	1900.093022178409	2308
3	15668	1900.093022178409	2309
3	15668	1900.093022178409	2310
3	15683	1900.495150085736	2311
3	15683	1900.495150085736	2312
3	15697	1902.495150085736	2313
3	15697	1902.495150085736	2314
3	15703	1904.495150085736	2315
3	15703	1904.495150085736	2316
3	15704	1904.495150085736	2317
3	15704	1904.495150085736	2318
3	15709	1904.593022178409	2319
3	15709	1904.593022178409	2320
3	15709	1904.593022178409	2321
3	15709	1904.593022178409	2322
3	15709	1904.593022178409	2323
3	15734	1906.495150085736	2324
3	15734	1906.495150085736	2325
3	15741	1908.495150085736	2326
[...]
25	20223	2426.517008560063	1032
25	20224	2426.517008560063	1033
25	20253	2428.517008560063	1034
25	20259	2430.517008560063	1035
25	20265	2431.017008560063	1036
25	20291	2432.517008560063	1037
25	20297	2434.517008560063	1038
25	20302	2435.517008560063	1039
25	20328	2436.517008560063	1040
25	20334	2438.517008560063	1041
25	20340	2440.017008560063	1042
25	20360	2440.517008560063	1043
25	20372	2442.517008560063	1044
25	20379	2444.517008560063	1045
25	20380	2444.517008560063	1046
25	20409	2446.517008560063	1047
25	20415	2448.517008560063	1048
25	20421	2449.017008560063	1049
25	20446	2450.517008560063	1050
25	20453	2452.517008560063	1051
25	20458	2453.517008560063	1052
25	20484	2454.517008560063	1053
25	20490	2456.517008560063	1054
25	20496	2458.017008560063	1055
25	20516	2458.517008560063	1056
25	20527	2460.517008560063	1057
25	20535	2462.517008560063	1058
25	20536	2462.517008560063	1059
25	20565	2464.517008560063	1060
25	20571	2466.517008560063	1061
25	20577	2467.017008560063	1062
25	20602	2468.517008560063	1063
25	20608	2470.517008560063	1064
25	20614	2471.517008560063	1065
25	20640	2472.517008560063	1066
25	20646	2474.517008560063	1067
25	20652	2476.017008560063	1068
25	20672	2476.517008560063	1069
25	20683	2478.517008560063	1070
25	20690	2480.517008560063	1071
25	20691	2480.517008560063	1072
25	20721	2482.517008560063	1073
25	20727	2484.517008560063	1074
25	20732	2485.017008560063	1075
25	20758	2486.517008560063	1076
25	20764	2488.517008560063	1077
25	20770	2489.517008560063	1078
25	20795	2490.517008560063	1079
25	20802	2492.517008560063	1080
25	20808	2494.017008560063	1081
25	20828	2494.517008560063	1082
25	20839	2496.517008560063	1083
25	20846	2498.517008560063	1084
25	20847	2498.517008560063	1085
25	20876	2500.517008560063	1086
25	20883	2502.517008560063	1087
25	20888	2503.017008560063	1088
25	20914	2504.517008560063	1089
25	20920	2506.517008560063	1090
25	20926	2507.517008560063	1091
25	20951	2508.517008560063	1092
25	20957	2510.517008560063	1093
25	20964	2512.017008560063	1094
25	20984	2512.517008560063	1095
25	20995	2514.517008560063	1096
25	21002	2516.517008560063	1097
25	21003	2516.517008560063	1098
25	21032	2518.517008560063	1099
25	21038	2520.517008560063	1100
25	21044	2521.017008560063	1101
25	21070	2522.517008560063	1102
25	21076	2524.517008560063	1103
25	21081	2525.517008560063	1104
25	21107	2526.517008560063	1105
25	21113	2528.517008560063	1106
25	21119	2530.017008560063	1107
25	21139	2530.517008560063	1108
25	21151	2532.517008560063	1109
25	21158	2534.517008560063	1110
25	21159	2534.517008560063	1111
25	21188	2536.517008560063	1112
25	21194	2538.517008560063	1113
25	21200	2539.017008560063	1114
25	21225	2540.517008560063	1115
25	21232	2542.517008560063	1116
25	21237	2543.517008560063	1117
25	21263	2544.517008560063	1118
25	21269	2546.517008560063	1119
25	21275	2548.017008560063	1120
25	21295	2548.517008560063	1121
25	21306	2550.517008560063	1122
25	21314	2552.517008560063	1123
25	21315	2552.517008560063	1124
25	21344	2554.517008560063	1125
25	21350	2556.517008560063	1126
25	21356	2557.017008560063	1127
25	21381	2558.517008560063	1128
25	21387	2560.517008560063	1129
25	21393	2561.517008560063	1130
25	21419	2562.517008560063	1131
25	21425	2564.517008560063	1132
25	21431	2566.017008560063	1133
25	21451	2566.517008560063	1134
25	21462	2568.517008560063	1135
25	21469	2570.517008560063	1136
25	21470	2570.517008560063	1137
25	21500	2572.517008560063	1138
25	21506	2574.517008560063	1139
25	21511	2575.017008560063	1140
25	21537	2576.517008560063	1141
25	21543	2578.517008560063	1142
25	21549	2579.517008560063	1143
25	21574	2580.517008560063	1144
25	21581	2582.517008560063	1145
25	21587	2584.017008560063	1146
25	21607	2584.517008560063	1147
25	21618	2586.517008560063	1148
25	21625	2588.517008560063	1149
25	21626	2588.517008560063	1150
25	21655	2590.517008560063	1151
25	21662	2592.517008560063	1152
25	21667	2593.017008560063	1153
25	21693	2594.517008560063	1154
25	21699	2596.517008560063	1155
25	21705	2597.517008560063	1156
25	21730	2598.517008560063	1157
25	21736	2600.517008560063	1158
25	21743	2602.017008560063	1159
25	21763	2602.517008560063	1160
25	21774	2604.517008560063	1161
25	21781	2606.517008560063	1162
25	21782	2606.517008560063	1163
25	21811	2608.517008560063	1164
25	21817	2610.517008560063	1165
25	21823	2611.017008560063	1166
25	21849	2612.517008560063	1167
25	22477	2684.517008560063	1168
25	22483	2686.517008560063	1169
25	22489	2687.517008560063	1170
25	22514	2688.517008560063	1171
25	22520	2690.517008560063	1172
25	22527	2692.017008560063	1173
25	22547	2692.517008560063	1174
25	22558	2694.517008560063	1175
25	22565	2696.517008560063	1176
25	22566	2696.517008560063	1177
25	22595	2698.517008560063	1178
25	22601	2700.517008560063	1179
25	22607	2701.017008560063	1180
25	22633	2702.517008560063	1181
25	22639	2704.517008560063	1182
25	22644	2705.517008560063	1183
25	22670	2706.517008560063	1184
25	22676	2708.517008560063	1185
25	22682	2710.017008560063	1186
25	22702	2710.517008560063	1187
25	22714	2712.517008560063	1188
25	22721	2714.517008560063	1189
25	22722	2714.517008560063	1190
25	22751	2716.517008560063	1191
25	22757	2718.517008560063	1192
25	22763	2719.017008560063	1193
25	22788	2720.517008560063	1194
25	22795	2722.517008560063	1195
25	22800	2723.517008560063	1196
25	22826	2724.517008560063	1197
26	3651	502.269012943122	1
26	3651	502.269012943122	2
26	3672	504.269012943122	3
26	3672	504.269012943122	4
26	3682	506.269012943122	5
26	3682	506.269012943122	6
26	3690	506.769012943122	7
26	3690	506.769012943122	8
26	3715	508.269012943122	9
26	3715	508.269012943122	10
26	3729	510.269012943122	11
26	3729	510.269012943122	12
26	3734	511.269012943122	13
26	3734	511.269012943122	14
26	3759	512.269012943122	15
26	3759	512.269012943122	16
26	3765	514.269012943122	17
26	3765	514.269012943122	18
26	3772	515.769012943122	19
26	3772	515.769012943122	20
26	3792	516.269012943122	21
26	3792	516.269012943122	22
26	3803	518.269012943122	23
26	3803	518.269012943122	24
26	3810	520.269012943122	25
26	3810	520.269012943122	26
26	3811	520.269012943122	27
26	3811	520.269012943122	28
26	3840	522.269012943122	29
26	3840	522.269012943122	30
26	3846	524.269012943122	31
26	3846	524.269012943122	32
26	3851	524.769012943122	33
26	3851	524.769012943122	34
26	3878	526.269012943122	35
26	3878	526.269012943122	36
26	3884	528.269012943122	37
26	3884	528.269012943122	38
26	3889	529.269012943122	39
26	3889	529.269012943122	40
26	3916	530.269012943122	41
26	3916	530.269012943122	42
26	3921	532.269012943122	43
26	3921	532.269012943122	44
26	3927	533.769012943122	45
26	3927	533.769012943122	46
26	3947	534.269012943122	47
26	3947	534.269012943122	48
26	3959	536.269012943122	49
26	3959	536.269012943122	50
26	3965	538.269012943122	51
26	3965	538.269012943122	52
26	3966	538.269012943122	53
26	3966	538.269012943122	54
26	3997	540.269012943122	55
26	3997	540.269012943122	56
26	4002	542.269012943122	57
26	4002	542.269012943122	58
26	4007	542.769012943122	59
26	4007	542.769012943122	60
26	4033	544.269012943122	61
26	4033	544.269012943122	62
26	4040	546.269012943122	63
26	4040	546.269012943122	64
26	4045	547.269012943122	65
26	4045	547.269012943122	66
26	4071	548.269012943122	67
26	4071	548.269012943122	68
26	4078	550.269012943122	69
26	4078	550.269012943122	70
26	4083	551.769012943122	71
26	4083	551.769012943122	72
26	4103	552.269012943122	73
26	4103	552.269012943122	74
26	4114	554.269012943122	75
26	4114	554.269012943122	76
26	4121	556.269012943122	77
26	4121	556.269012943122	78
26	4122	556.269012943122	79
26	4122	556.269012943122	80
26	4152	558.269012943122	81
26	4152	558.269012943122	82
26	4159	560.269012943122	83
26	4159	560.269012943122	84
26	4164	560.769012943122	85
26	4164	560.769012943122	86
26	4189	562.269012943122	87
26	4189	562.269012943122	88
26	4195	564.269012943122	89
26	4195	564.269012943122	90
26	4202	565.269012943122	91
26	4202	565.269012943122	92
26	4227	566.269012943122	93
26	4227	566.269012943122	94
26	4233	568.269012943122	95
26	4233	568.269012943122	96
26	4238	569.769012943122	97
26	4238	569.769012943122	98
26	4260	570.269012943122	99
26	4260	570.269012943122	100
26	4270	572.269012943122	101
26	4270	572.269012943122	102
26	4276	574.269012943122	103
26	4276	574.269012943122	104
26	4277	574.269012943122	105
26	4277	574.269012943122	106
26	4308	576.269012943122	107
26	4308	576.269012943122	108
26	4314	578.269012943122	109
26	4314	578.269012943122	110
26	4319	578.769012943122	111
26	4319	578.769012943122	112
26	4346	580.269012943122	113
26	4346	580.269012943122	114
26	4351	582.269012943122	115
26	4351	582.269012943122	116
26	4357	583.269012943122	117
26	4357	583.269012943122	118
26	4382	584.269012943122	119
26	4382	584.269012943122	120
26	4389	586.269012943122	121
26	4389	586.269012943122	122
26	4394	587.769012943122	123
26	4394	587.769012943122	124
26	4415	588.269012943122	125
26	4415	588.269012943122	126
26	4427	590.269012943122	127
26	4427	590.269012943122	128
26	4432	592.269012943122	129
26	4432	592.269012943122	130
26	4433	592.269012943122	131
26	4433	592.269012943122	132
26	4463	594.269012943122	133
26	4463	594.269012943122	134
26	4470	596.269012943122	135
26	4470	596.269012943122	136
26	4475	596.769012943122	137
26	4475	596.769012943122	138
26	4501	598.269012943122	139
26	4501	598.269012943122	140
26	4508	600.269012943122	141
26	4508	600.269012943122	142
26	4513	601.269012943122	143
26	4513	601.269012943122	144
26	4538	602.269012943122	145
26	4538	602.269012943122	146
26	4544	604.269012943122	147
26	4544	604.269012943122	148
26	4551	605.769012943122	149
26	4551	605.769012943122	150
26	4571	606.269012943122	151
26	4571	606.269012943122	152
26	4582	608.269012943122	153
26	4582	608.269012943122	154
26	4589	610.269012943122	155
26	4589	610.269012943122	156
26	4590	610.269012943122	157
26	4590	610.269012943122	158
26	4619	612.269012943122	159
26	4619	612.269012943122	160
26	4625	614.269012943122	161
26	4625	614.269012943122	162
26	4630	614.769012943122	163
26	4630	614.769012943122	164
26	4657	616.269012943122	165
26	4657	616.269012943122	166
26	4663	618.269012943122	167
26	4663	618.269012943122	168
26	4668	619.269012943122	169
26	4668	619.269012943122	170
26	4695	620.269012943122	171
26	4695	620.269012943122	172
26	4700	622.269012943122	173
26	4700	622.269012943122	174
26	4706	623.769012943122	175
26	4706	623.769012943122	176
26	4726	624.269012943122	177
26	4726	624.269012943122	178
26	4738	626.269012943122	179
26	4738	626.269012943122	180
26	4744	628.269012943122	181
26	4744	628.269012943122	182
26	4745	628.269012943122	183
26	4745	628.269012943122	184
26	4776	630.269012943122	185
26	4776	630.269012943122	186
26	4781	632.269012943122	187
26	4781	632.269012943122	188
26	4786	632.769012943122	189
26	4786	632.769012943122	190
26	4812	634.269012943122	191
26	4812	634.269012943122	192
26	4819	636.269012943122	193
26	4819	636.269012943122	194
26	4824	637.269012943122	195
26	4824	637.269012943122	196
26	4850	638.269012943122	197
26	4850	638.269012943122	198
26	4857	640.269012943122	199
26	4857	640.269012943122	200
26	4862	641.769012943122	201
26	4862	641.769012943122	202
26	4882	642.269012943122	203
26	4882	642.269012943122	204
26	4893	644.269012943122	205
26	4893	644.269012943122	206
26	4900	646.269012943122	207
26	4900	646.269012943122	208
26	4901	646.269012943122	209
26	4901	646.269012943122	210
26	4931	648.269012943122	211
26	4931	648.269012943122	212
26	4938	650.269012943122	213
26	4938	650.269012943122	214
26	4943	650.769012943122	215
26	4943	650.769012943122	216
26	4968	652.269012943122	217
26	4968	652.269012943122	218
26	4974	654.269012943122	219
26	4974	654.269012943122	220
26	4981	655.269012943122	221
26	4981	655.269012943122	222
26	5006	656.269012943122	223
26	5006	656.269012943122	224
26	5012	658.269012943122	225
26	5012	658.269012943122	226
26	5017	659.769012943122	227
26	5017	659.769012943122	228
26	5039	660.269012943122	229
26	5039	660.269012943122	230
26	5049	662.269012943122	231
26	5049	662.269012943122	232
26	5055	664.269012943122	233
26	5055	664.269012943122	234
26	5056	664.269012943122	235
26	5056	664.269012943122	236
26	5087	666.269012943122	237
26	5087	666.269012943122	238
26	5093	668.269012943122	239
26	5093	668.269012943122	240
26	5098	668.769012943122	241
26	5098	668.769012943122	242
26	5125	670.269012943122	243
26	5125	670.269012943122	244
26	5130	672.269012943122	245
26	5130	672.269012943122	246
26	5136	673.269012943122	247
26	5136	673.269012943122	248
26	5161	674.269012943122	249
26	5161	674.269012943122	250
26	5168	676.269012943122	251
26	5168	676.269012943122	252
26	5173	677.769012943122	253
26	5173	677.769012943122	254
26	5194	678.269012943122	255
26	5194	678.269012943122	256
26	5206	680.269012943122	257
26	5206	680.269012943122	258
26	5211	682.269012943122	259
26	5211	682.269012943122	260
26	5212	682.269012943122	261
26	5212	682.269012943122	262
26	5242	684.269012943122	263
26	5242	684.269012943122	264
26	5249	686.269012943122	265
26	5249	686.269012943122	266
26	5254	686.769012943122	267
26	5254	686.769012943122	268
26	5280	688.269012943122	269
26	5280	688.269012943122	270
26	5287	690.269012943122	271
26	5287	690.269012943122	272
26	5292	691.269012943122	273
26	5292	691.269012943122	274
26	5317	692.269012943122	275
26	5317	692.269012943122	276
26	5323	694.269012943122	277
26	5323	694.269012943122	278
26	5330	695.769012943122	279
26	5330	695.769012943122	280
26	5350	696.269012943122	281
26	5350	696.269012943122	282
26	5361	698.269012943122	283
26	5361	698.269012943122	284
26	5368	700.269012943122	285
26	5368	700.269012943122	286
26	5369	700.269012943122	287
26	5369	700.269012943122	288
26	5398	702.269012943122	289
26	5398	702.269012943122	290
26	5404	704.269012943122	291
26	5404	704.269012943122	292
26	5409	704.769012943122	293
26	5409	704.769012943122	294
26	5436	706.269012943122	295
26	5436	706.269012943122	296
26	5442	708.269012943122	297
26	5442	708.269012943122	298
26	5447	709.269012943122	299
26	5447	709.269012943122	300
26	5474	710.269012943122	301
26	5474	710.269012943122	302
26	5479	712.269012943122	303
26	5479	712.269012943122	304
26	5485	713.769012943122	305
26	5485	713.769012943122	306
26	5505	714.269012943122	307
26	5505	714.269012943122	308
26	5517	716.269012943122	309
26	5517	716.269012943122	310
26	5523	718.269012943122	311
26	5523	718.269012943122	312
26	5524	718.269012943122	313
26	5524	718.269012943122	314
26	5555	720.269012943122	315
26	5555	720.269012943122	316
26	5560	722.269012943122	317
26	5560	722.269012943122	318
26	5565	722.769012943122	319
26	5565	722.769012943122	320
26	5591	724.269012943122	321
26	5591	724.269012943122	322
26	5598	726.269012943122	323
26	5598	726.269012943122	324
26	5603	727.269012943122	325
26	5603	727.269012943122	326
26	5629	728.269012943122	327
26	5629	728.269012943122	328
26	5636	730.269012943122	329
26	5636	730.269012943122	330
26	5641	731.769012943122	331
26	5641	731.769012943122	332
26	5661	732.269012943122	333
26	5661	732.269012943122	334
26	5672	734.269012943122	335
26	5672	734.269012943122	336
26	5679	736.269012943122	337
26	5679	736.269012943122	338
26	5680	736.269012943122	339
26	5680	736.269012943122	340
26	5710	738.269012943122	341
26	5710	738.269012943122	342
26	5717	740.269012943122	343
26	5717	740.269012943122	344
26	5722	740.769012943122	345
26	5722	740.769012943122	346
26	5747	742.269012943122	347
26	5747	742.269012943122	348
26	5753	744.269012943122	349
26	5753	744.269012943122	350
26	5760	745.269012943122	351
26	5760	745.269012943122	352
26	5785	746.269012943122	353
26	5785	746.269012943122	354
26	5791	748.269012943122	355
26	5791	748.269012943122	356
26	5796	749.769012943122	357
26	5796	749.769012943122	358
26	5818	750.269012943122	359
26	5818	750.269012943122	360
26	5828	752.269012943122	361
26	5828	752.269012943122	362
26	5834	754.269012943122	363
26	5834	754.269012943122	364
26	5835	754.269012943122	365
26	5835	754.269012943122	366
26	5866	756.269012943122	367
26	5866	756.269012943122	368
26	5872	758.269012943122	369
26	5872	758.269012943122	370
26	5877	758.769012943122	371
26	5877	758.769012943122	372
26	5904	760.269012943122	373
26	5904	760.269012943122	374
26	5909	762.269012943122	375
26	5909	762.269012943122	376
26	5915	763.269012943122	377
26	5915	763.269012943122	378
26	5940	764.269012943122	379
26	5940	764.269012943122	380
26	5947	766.269012943122	381
26	5947	766.269012943122	382
26	5952	767.769012943122	383
26	5952	767.769012943122	384
26	5973	768.269012943122	385
26	5973	768.269012943122	386
26	5985	770.269012943122	387
26	5985	770.269012943122	388
26	5990	772.269012943122	389
26	5990	772.269012943122	390
26	5991	772.269012943122	391
26	5991	772.269012943122	392
26	6021	774.269012943122	393
26	6021	774.269012943122	394
26	6028	776.269012943122	395
26	6028	776.269012943122	396
26	6033	776.769012943122	397
26	6033	776.769012943122	398
26	6059	778.269012943122	399
26	6059	778.269012943122	400
26	6066	780.269012943122	401
26	6066	780.269012943122	402
26	6071	781.269012943122	403
26	6071	781.269012943122	404
26	6096	782.269012943122	405
26	6096	782.269012943122	406
26	6102	784.269012943122	407
26	6102	784.269012943122	408
26	6109	785.769012943122	409
26	6109	785.769012943122	410
26	6129	786.269012943122	411
26	6129	786.269012943122	412
26	6140	788.269012943122	413
26	6140	788.269012943122	414
26	6147	790.269012943122	415
26	6147	790.269012943122	416
26	6148	790.269012943122	417
26	6148	790.269012943122	418
26	6177	792.269012943122	419
26	6177	792.269012943122	420
26	6183	794.269012943122	421
26	6183	794.269012943122	422
26	6188	794.769012943122	423
26	6188	794.769012943122	424
26	6215	796.269012943122	425
26	6215	796.269012943122	426
26	6221	798.269012943122	427
26	6221	798.269012943122	428
26	6226	799.269012943122	429
26	6226	799.269012943122	430
26	6253	800.269012943122	431
26	6253	800.269012943122	432
26	6258	802.269012943122	433
26	6258	802.269012943122	434
26	6264	803.769012943122	435
26	6264	803.769012943122	436
26	6284	804.269012943122	437
26	6284	804.269012943122	438
26	6296	806.269012943122	439
26	6296	806.269012943122	440
26	6302	808.269012943122	441
26	6302	808.269012943122	442
26	6303	808.269012943122	443
26	6303	808.269012943122	444
26	6334	810.269012943122	445
26	6334	810.269012943122	446
26	6339	812.269012943122	447
26	6339	812.269012943122	448
26	6344	812.769012943122	449
26	6344	812.769012943122	450
26	6370	814.269012943122	451
26	6370	814.269012943122	452
26	6378	816.269012943122	453
26	6378	816.269012943122	454
26	6383	817.269012943122	455
26	6383	817.269012943122	456
26	6409	818.269012943122	457
26	6409	818.269012943122	458
26	6417	820.269012943122	459
26	6417	820.269012943122	460
26	6422	821.769012943122	461
26	6422	821.769012943122	462
26	6442	822.269012943122	463
26	6442	822.269012943122	464
26	6453	824.269012943122	465
26	6453	824.269012943122	466
26	6461	826.269012943122	467
26	6461	826.269012943122	468
26	6462	826.269012943122	469
26	6462	826.269012943122	470
26	6491	828.269012943122	471
26	6491	828.269012943122	472
26	6498	830.269012943122	473
26	6498	830.269012943122	474
26	6502	830.769012943122	475
26	6502	830.769012943122	476
26	6529	832.269012943122	477
26	6529	832.269012943122	478
26	6535	834.269012943122	479
26	6535	834.269012943122	480
26	6541	835.269012943122	481
26	6541	835.269012943122	482
26	6567	836.269012943122	483
26	6567	836.269012943122	484
26	6573	838.269012943122	485
26	6573	838.269012943122	486
26	6578	839.769012943122	487
26	6578	839.769012943122	488
26	6599	840.269012943122	489
26	6599	840.269012943122	490
26	6611	842.269012943122	491
26	6611	842.269012943122	492
26	6617	844.269012943122	493
26	6617	844.269012943122	494
26	6618	844.269012943122	495
26	6618	844.269012943122	496
26	6649	846.269012943122	497
26	6649	846.269012943122	498
26	6655	848.269012943122	499
26	6655	848.269012943122	500
26	6659	848.769012943122	501
26	6659	848.769012943122	502
26	6686	850.269012943122	503
26	6686	850.269012943122	504
26	6692	852.269012943122	505
26	6692	852.269012943122	506
26	6697	853.269012943122	507
26	6697	853.269012943122	508
26	6722	854.269012943122	509
26	6722	854.269012943122	510

