version 2
run StaticNetwork-8-20220401-09:14:18-20844
attr configname StaticNetwork
attr datetime 20220401-09:14:18
attr experiment StaticNetwork
attr inifile omnetpp.ini
attr iterationvars "$0=5, $1=5, $2=normal(7.0s, 1.5s), $3=uniform(0.1s, 0.3s), $4=normal(5.0s, 1s), $5=2s, $6=4.5s, $7=5s, $8=1s, $9=1, $10=7, $11=0"
attr iterationvarsf 5,5,normal(7.0s,_1.5s),uniform(0.1s,_0.3s),normal(5.0s,_1s),2s,4.5s,5s,1s,1,7,0-
attr measurement "$0=5, $1=5, $2=normal(7.0s, 1.5s), $3=uniform(0.1s, 0.3s), $4=normal(5.0s, 1s), $5=2s, $6=4.5s, $7=5s, $8=1s, $9=1, $10=7, $11=0"
attr network RAFT_Network
attr processid 20844
attr repetition 0
attr replication #0
attr resultdir results
attr runnumber 8
attr seedset 8
param **.servers_number 5
param **.clients_number 5
param **.client[*].requestMsgTimeout "normal(7.0s, 1.5s)"
param **.cloud.propDelay "uniform(0.1s, 0.3s)"
param **.server[*].electionTimeout "normal(5.0s, 1s)"
param **.server[*].heartbeatTimeout 2s
param **.server[*].appendEntriesTimeout 4.5s
param **.server[*].checkFailureTimeout 5s
param **.server[*].checkRecoveryTimeout 1s
param **.failureProbability 1
param **.recoveryProbability 7
param **.messageLossProbability 0

vector 0 RAFT_Network.server[0] serverState ETV
vector 1 RAFT_Network.server[1] serverState ETV
vector 2 RAFT_Network.server[2] serverState ETV
vector 3 RAFT_Network.server[3] serverState ETV
vector 4 RAFT_Network.server[4] serverState ETV
vector 5 RAFT_Network.server[2] totMsgSent ETV
vector 6 RAFT_Network.server[2] totRequestVoteMsgSent ETV
vector 7 RAFT_Network.server[4] totMsgReceived ETV
vector 8 RAFT_Network.server[4] totMsgSent ETV
vector 9 RAFT_Network.server[4] totReplyToClientRequestMsgSent ETV
vector 10 RAFT_Network.server[2] totMsgReceived ETV
vector 11 RAFT_Network.server[1] totMsgReceived ETV
vector 12 RAFT_Network.server[1] totMsgSent ETV
vector 13 RAFT_Network.server[1] totReplyToClientRequestMsgSent ETV
vector 14 RAFT_Network.server[0] electionsMeanTime ETV
vector 15 RAFT_Network.server[2] totAppendEntriesMsgSent ETV
vector 16 RAFT_Network.server[4] totReplyToAppendEntriesMsgSent ETV
vector 17 RAFT_Network.server[1] totReplyToAppendEntriesMsgSent ETV
vector 18 RAFT_Network.server[0] totMsgReceived ETV
vector 19 RAFT_Network.server[0] totMsgSent ETV
vector 20 RAFT_Network.server[0] totReplyToClientRequestMsgSent ETV
vector 21 RAFT_Network.server[0] totReplyToAppendEntriesMsgSent ETV
vector 22 RAFT_Network.server[3] totMsgReceived ETV
vector 23 RAFT_Network.server[3] totMsgSent ETV
vector 24 RAFT_Network.server[3] totReplyToClientRequestMsgSent ETV
vector 25 RAFT_Network.server[3] totReplyToAppendEntriesMsgSent ETV
vector 26 RAFT_Network.server[2] totReplyToClientRequestMsgSent ETV
vector 27 RAFT_Network.client[2] responseTime ETV
vector 28 RAFT_Network.client[0] responseTime ETV
vector 29 RAFT_Network.client[4] responseTime ETV
vector 30 RAFT_Network.client[1] responseTime ETV
vector 31 RAFT_Network.client[3] responseTime ETV
vector 32 RAFT_Network.server[4] totRequestVoteMsgSent ETV
vector 33 RAFT_Network.server[4] totAppendEntriesMsgSent ETV
vector 34 RAFT_Network.server[2] totReplyToAppendEntriesMsgSent ETV
0	0	0	0
0	10	3.622968045611	0
0	10	3.622968045611	0
0	1116	95	0
0	1116	95	-1
0	1181	100	-1
0	1181	100	0
0	2001	170	0
0	2001	170	-1
0	2102	178	-1
0	2102	178	0
0	3545	298	0
0	3545	298	-1
0	3611	305	-1
0	3611	305	0
0	10061	845	0
0	10061	845	-1
0	10153	851	-1
0	10153	851	0
0	13982	1173.988400637124	0
0	13982	1173.988400637124	0
0	19338	1621	0
0	19338	1621	-1
0	19455	1632	-1
0	19455	1632	0
0	24343	2041.708975508512	0
0	24343	2041.708975508512	0
0	26457	2220.169773067797	0
0	26457	2220.169773067797	0
0	33612	2817	0
0	33612	2817	-1
0	33828	2835	-1
0	33828	2835	0
0	35807	3000	0
1	0	0	0
1	4	3.5791895901	0
1	4	3.5791895901	0
1	4683	395	0
1	4683	395	-1
1	4725	397	-1
1	4725	397	0
1	7643	642	0
1	7643	642	-1
1	7695	646	-1
1	7695	646	0
1	13989	1174.12226857135	0
1	13989	1174.12226857135	0
1	21767	1826	0
1	21767	1826	-1
1	21931	1839	-1
1	21931	1839	0
1	24341	2041.665197053001	0
1	24341	2041.665197053001	0
1	26467	2220.303641002023	0
1	26467	2220.303641002023	0
1	26576	2229	0
1	26576	2229	-1
1	26643	2234	-1
1	26643	2234	0
1	26717	2239	0
1	26717	2239	-1
1	26781	2246	-1
1	26781	2246	0
1	35159	2946	0
1	35159	2946	-1
1	35232	2953	-1
1	35232	2953	0
1	35425	2968	0
1	35425	2968	-1
1	35540	2978	-1
1	35540	2978	0
1	35807	3000	0
2	0	0	0
2	1	3.551425301126	0
2	1	3.551425301126	1
2	5	3.580265141895	1
2	5	3.580265141895	2
2	13970	1170	2
2	13970	1170	-1
2	14130	1186	-1
2	14130	1186	0
2	14133	1186.086007462901	0
2	14133	1186.086007462901	0
2	22363	1876	0
2	22363	1876	-1
2	22401	1877	-1
2	22401	1877	0
2	24339	2041.637432764027	0
2	24339	2041.637432764027	1
2	24345	2041.761637572568	1
2	24345	2041.761637572568	2
2	26442	2217	2
2	26442	2217	-1
2	26445	2218	-1
2	26445	2218	0
2	26454	2220.133781950211	0
2	26454	2220.133781950211	0
2	30982	2598	0
2	30982	2598	-1
2	31400	2631	-1
2	31400	2631	0
2	35807	3000	0
3	0	0	0
3	12	3.655323789826	0
3	12	3.655323789826	0
3	1712	145	0
3	1712	145	-1
3	1858	157	-1
3	1858	157	0
3	7468	627	0
3	7468	627	-1
3	7531	633	-1
3	7531	633	0
3	8740	733	0
3	8740	733	-1
3	8761	735	-1
3	8761	735	0
3	10316	865	0
3	10316	865	-1
3	10328	867	-1
3	10328	867	0
3	11658	977	0
3	11658	977	-1
3	11824	991	-1
3	11824	991	0
3	13979	1173.943466933305	0
3	13979	1173.943466933305	0
3	24344	2041.741331252727	0
3	24344	2041.741331252727	0
3	24936	2091	0
3	24936	2091	-1
3	25204	2112	-1
3	25204	2112	0
3	26453	2220.124839363978	0
3	26453	2220.124839363978	0
3	26793	2247	0
3	26793	2247	-1
3	27049	2267	-1
3	27049	2267	0
3	33614	2817	0
3	33614	2817	-1
3	33637	2819	-1
3	33637	2819	0
3	35807	3000	0
4	0	0	0
4	2	3.554190937042	0
4	2	3.554190937042	0
4	13978	1173.940063247621	0
4	13978	1173.940063247621	1
4	13984	1174.073661190984	1
4	13984	1174.073661190984	2
4	24336	2040	2
4	24336	2040	-1
4	24496	2052	-1
4	24496	2052	0
4	24498	2053.764403208484	0
4	24498	2053.764403208484	0
4	26452	2220.121435678294	0
4	26452	2220.121435678294	1
4	26460	2220.255033621657	1
4	26460	2220.255033621657	2
4	35807	3000	2
5	1	3.551425301126	1
5	1	3.551425301126	2
5	1	3.551425301126	3
5	1	3.551425301126	4
5	5	3.580265141895	5
5	5	3.580265141895	6
5	5	3.580265141895	7
5	5	3.580265141895	8
5	23	5.580265141895	9
5	23	5.580265141895	10
5	23	5.580265141895	11
5	23	5.580265141895	12
5	48	7.580265141895	13
5	48	7.580265141895	14
5	48	7.580265141895	15
5	48	7.580265141895	16
5	60	8.080265141895	17
5	60	8.080265141895	18
5	60	8.080265141895	19
5	60	8.080265141895	20
5	64	8.109104982664	21
5	64	8.109104982664	22
5	93	9.580265141895	23
5	93	9.580265141895	24
5	93	9.580265141895	25
5	93	9.580265141895	26
5	107	11.580265141895	27
5	107	11.580265141895	28
5	107	11.580265141895	29
5	107	11.580265141895	30
5	116	12.580265141895	31
5	116	12.580265141895	32
5	116	12.580265141895	33
5	116	12.580265141895	34
5	120	12.609104982664	35
5	120	12.609104982664	36
5	120	12.609104982664	37
5	120	12.609104982664	38
5	120	12.609104982664	39
5	145	13.580265141895	40
5	145	13.580265141895	41
5	145	13.580265141895	42
5	145	13.580265141895	43
5	159	15.580265141895	44
5	159	15.580265141895	45
5	159	15.580265141895	46
5	159	15.580265141895	47
5	168	17.080265141895	48
5	168	17.080265141895	49
5	168	17.080265141895	50
5	168	17.080265141895	51
5	172	17.109104982664	52
5	172	17.109104982664	53
5	172	17.109104982664	54
5	172	17.109104982664	55
5	172	17.109104982664	56
5	191	17.580265141895	57
5	191	17.580265141895	58
5	191	17.580265141895	59
5	191	17.580265141895	60
5	206	19.580265141895	61
5	206	19.580265141895	62
5	206	19.580265141895	63
5	206	19.580265141895	64
5	220	21.580265141895	65
5	220	21.580265141895	66
5	220	21.580265141895	67
5	220	21.580265141895	68
5	221	21.580265141895	69
5	221	21.580265141895	70
5	221	21.580265141895	71
5	221	21.580265141895	72
5	228	21.609104982664	73
5	228	21.609104982664	74
5	228	21.609104982664	75
5	228	21.609104982664	76
5	228	21.609104982664	77
5	258	23.580265141895	78
5	258	23.580265141895	79
5	258	23.580265141895	80
5	258	23.580265141895	81
5	272	25.580265141895	82
5	272	25.580265141895	83
5	272	25.580265141895	84
5	272	25.580265141895	85
5	281	26.080265141895	86
5	281	26.080265141895	87
5	281	26.080265141895	88
5	281	26.080265141895	89
5	285	26.109104982664	90
5	285	26.109104982664	91
5	285	26.109104982664	92
5	285	26.109104982664	93
5	285	26.109104982664	94
5	310	27.580265141895	95
5	310	27.580265141895	96
5	310	27.580265141895	97
5	310	27.580265141895	98
5	319	29.580265141895	99
5	319	29.580265141895	100
5	319	29.580265141895	101
5	319	29.580265141895	102
5	333	30.580265141895	103
5	333	30.580265141895	104
5	333	30.580265141895	105
5	333	30.580265141895	106
5	337	30.609104982664	107
5	337	30.609104982664	108
5	337	30.609104982664	109
5	337	30.609104982664	110
5	337	30.609104982664	111
5	362	31.580265141895	112
5	362	31.580265141895	113
5	362	31.580265141895	114
5	362	31.580265141895	115
5	371	33.580265141895	116
5	371	33.580265141895	117
5	371	33.580265141895	118
5	371	33.580265141895	119
5	385	35.080265141895	120
5	385	35.080265141895	121
5	385	35.080265141895	122
5	385	35.080265141895	123
5	389	35.109104982664	124
5	389	35.109104982664	125
5	389	35.109104982664	126
5	389	35.109104982664	127
5	389	35.109104982664	128
5	408	35.580265141895	129
5	408	35.580265141895	130
5	408	35.580265141895	131
5	408	35.580265141895	132
5	423	37.580265141895	133
5	423	37.580265141895	134
5	423	37.580265141895	135
5	423	37.580265141895	136
5	432	39.580265141895	137
5	432	39.580265141895	138
5	432	39.580265141895	139
5	432	39.580265141895	140
5	433	39.580265141895	141
5	433	39.580265141895	142
5	433	39.580265141895	143
5	433	39.580265141895	144
5	440	39.609104982664	145
5	440	39.609104982664	146
5	440	39.609104982664	147
5	440	39.609104982664	148
5	440	39.609104982664	149
5	475	41.580265141895	150
5	475	41.580265141895	151
5	475	41.580265141895	152
5	475	41.580265141895	153
5	484	43.580265141895	154
5	484	43.580265141895	155
5	484	43.580265141895	156
5	484	43.580265141895	157
5	493	44.080265141895	158
5	493	44.080265141895	159
5	493	44.080265141895	160
5	493	44.080265141895	161
5	497	44.109104982664	162
5	497	44.109104982664	163
5	497	44.109104982664	164
5	497	44.109104982664	165
5	497	44.109104982664	166
5	527	45.580265141895	167
5	527	45.580265141895	168
5	527	45.580265141895	169
5	527	45.580265141895	170
5	536	47.580265141895	171
5	536	47.580265141895	172
5	536	47.580265141895	173
5	536	47.580265141895	174
5	545	48.580265141895	175
5	545	48.580265141895	176
5	545	48.580265141895	177
5	545	48.580265141895	178
5	549	48.609104982664	179
5	549	48.609104982664	180
5	549	48.609104982664	181
5	549	48.609104982664	182
5	549	48.609104982664	183
5	574	49.580265141895	184
5	574	49.580265141895	185
5	574	49.580265141895	186
5	574	49.580265141895	187
5	588	51.580265141895	188
5	588	51.580265141895	189
5	588	51.580265141895	190
5	588	51.580265141895	191
5	597	53.080265141895	192
5	597	53.080265141895	193
5	597	53.080265141895	194
5	597	53.080265141895	195
5	601	53.109104982664	196
5	601	53.109104982664	197
5	601	53.109104982664	198
5	601	53.109104982664	199
5	601	53.109104982664	200
5	620	53.580265141895	201
5	620	53.580265141895	202
5	620	53.580265141895	203
5	620	53.580265141895	204
5	640	55.580265141895	205
5	640	55.580265141895	206
5	640	55.580265141895	207
5	640	55.580265141895	208
5	649	57.580265141895	209
5	649	57.580265141895	210
5	649	57.580265141895	211
5	649	57.580265141895	212
5	650	57.580265141895	213
5	650	57.580265141895	214
5	650	57.580265141895	215
5	650	57.580265141895	216
5	657	57.609104982664	217
5	657	57.609104982664	218
5	657	57.609104982664	219
5	657	57.609104982664	220
5	657	57.609104982664	221
5	687	59.580265141895	222
5	687	59.580265141895	223
5	687	59.580265141895	224
5	687	59.580265141895	225
5	701	61.580265141895	226
5	701	61.580265141895	227
5	701	61.580265141895	228
5	701	61.580265141895	229
5	710	62.080265141895	230
5	710	62.080265141895	231
5	710	62.080265141895	232
5	710	62.080265141895	233
5	714	62.109104982664	234
5	714	62.109104982664	235
5	714	62.109104982664	236
5	714	62.109104982664	237
5	714	62.109104982664	238
5	739	63.580265141895	239
5	739	63.580265141895	240
5	739	63.580265141895	241
5	739	63.580265141895	242
5	753	65.580265141895	243
5	753	65.580265141895	244
5	753	65.580265141895	245
5	753	65.580265141895	246
5	762	66.580265141895	247
5	762	66.580265141895	248
5	762	66.580265141895	249
5	762	66.580265141895	250
5	766	66.609104982664	251
5	766	66.609104982664	252
5	766	66.609104982664	253
5	766	66.609104982664	254
5	766	66.609104982664	255
5	791	67.580265141895	256
5	791	67.580265141895	257
5	791	67.580265141895	258
5	791	67.580265141895	259
5	800	69.580265141895	260
5	800	69.580265141895	261
5	800	69.580265141895	262
5	800	69.580265141895	263
5	814	71.080265141895	264
5	814	71.080265141895	265
5	814	71.080265141895	266
5	814	71.080265141895	267
5	818	71.109104982664	268
5	818	71.109104982664	269
5	818	71.109104982664	270
5	818	71.109104982664	271
5	818	71.109104982664	272
5	837	71.580265141895	273
5	837	71.580265141895	274
5	837	71.580265141895	275
5	837	71.580265141895	276
5	852	73.580265141895	277
5	852	73.580265141895	278
5	852	73.580265141895	279
5	852	73.580265141895	280
5	866	75.580265141895	281
5	866	75.580265141895	282
5	866	75.580265141895	283
5	866	75.580265141895	284
5	867	75.580265141895	285
5	867	75.580265141895	286
5	867	75.580265141895	287
5	867	75.580265141895	288
5	874	75.609104982664	289
5	874	75.609104982664	290
5	874	75.609104982664	291
5	874	75.609104982664	292
5	874	75.609104982664	293
5	904	77.580265141895	294
5	904	77.580265141895	295
5	904	77.580265141895	296
5	904	77.580265141895	297
5	913	79.580265141895	298
5	913	79.580265141895	299
5	913	79.580265141895	300
5	913	79.580265141895	301
5	927	80.080265141895	302
5	927	80.080265141895	303
5	927	80.080265141895	304
5	927	80.080265141895	305
5	931	80.109104982664	306
5	931	80.109104982664	307
5	931	80.109104982664	308
5	931	80.109104982664	309
5	931	80.109104982664	310
5	956	81.580265141895	311
5	956	81.580265141895	312
5	956	81.580265141895	313
5	956	81.580265141895	314
5	965	83.580265141895	315
5	965	83.580265141895	316
5	965	83.580265141895	317
5	965	83.580265141895	318
5	974	84.580265141895	319
5	974	84.580265141895	320
5	974	84.580265141895	321
5	974	84.580265141895	322
5	978	84.609104982664	323
5	978	84.609104982664	324
5	978	84.609104982664	325
5	978	84.609104982664	326
5	978	84.609104982664	327
5	1008	85.580265141895	328
5	1008	85.580265141895	329
5	1008	85.580265141895	330
5	1008	85.580265141895	331
5	1017	87.580265141895	332
5	1017	87.580265141895	333
5	1017	87.580265141895	334
5	1017	87.580265141895	335
5	1026	89.080265141895	336
5	1026	89.080265141895	337
5	1026	89.080265141895	338
5	1026	89.080265141895	339
5	1030	89.109104982664	340
5	1030	89.109104982664	341
5	1030	89.109104982664	342
5	1030	89.109104982664	343
5	1030	89.109104982664	344
5	1049	89.580265141895	345
5	1049	89.580265141895	346
5	1049	89.580265141895	347
5	1049	89.580265141895	348
5	1069	91.580265141895	349
5	1069	91.580265141895	350
5	1069	91.580265141895	351
5	1069	91.580265141895	352
5	1078	93.580265141895	353
5	1078	93.580265141895	354
5	1078	93.580265141895	355
5	1078	93.580265141895	356
5	1079	93.580265141895	357
5	1079	93.580265141895	358
5	1079	93.580265141895	359
5	1079	93.580265141895	360
5	1086	93.609104982664	361
5	1086	93.609104982664	362
5	1086	93.609104982664	363
5	1086	93.609104982664	364
5	1086	93.609104982664	365
5	1121	95.580265141895	366
5	1121	95.580265141895	367
5	1121	95.580265141895	368
5	1121	95.580265141895	369
5	1131	97.580265141895	370
5	1131	97.580265141895	371
5	1131	97.580265141895	372
5	1131	97.580265141895	373
5	1140	98.080265141895	374
5	1140	98.080265141895	375
5	1140	98.080265141895	376
5	1140	98.080265141895	377
5	1144	98.109104982664	378
5	1144	98.109104982664	379
5	1144	98.109104982664	380
5	1144	98.109104982664	381
5	1144	98.109104982664	382
5	1169	99.580265141895	383
5	1169	99.580265141895	384
5	1169	99.580265141895	385
5	1169	99.580265141895	386
5	1182	101.580265141895	387
5	1182	101.580265141895	388
5	1182	101.580265141895	389
5	1182	101.580265141895	390
5	1191	102.580265141895	391
5	1191	102.580265141895	392
5	1191	102.580265141895	393
5	1191	102.580265141895	394
5	1195	102.609104982664	395
5	1195	102.609104982664	396
5	1195	102.609104982664	397
5	1195	102.609104982664	398
5	1195	102.609104982664	399
5	1220	103.580265141895	400
5	1220	103.580265141895	401
5	1220	103.580265141895	402
5	1220	103.580265141895	403
5	1234	105.580265141895	404
5	1234	105.580265141895	405
5	1234	105.580265141895	406
5	1234	105.580265141895	407
5	1243	107.080265141895	408
5	1243	107.080265141895	409
5	1243	107.080265141895	410
5	1243	107.080265141895	411
5	1247	107.109104982664	412
5	1247	107.109104982664	413
5	1247	107.109104982664	414
5	1247	107.109104982664	415
5	1247	107.109104982664	416
5	1266	107.580265141895	417
5	1266	107.580265141895	418
5	1266	107.580265141895	419
5	1266	107.580265141895	420
5	1281	109.580265141895	421
5	1281	109.580265141895	422
5	1281	109.580265141895	423
5	1281	109.580265141895	424
5	1295	111.580265141895	425
5	1295	111.580265141895	426
5	1295	111.580265141895	427
5	1295	111.580265141895	428
5	1296	111.580265141895	429
5	1296	111.580265141895	430
5	1296	111.580265141895	431
5	1296	111.580265141895	432
5	1303	111.609104982664	433
5	1303	111.609104982664	434
5	1303	111.609104982664	435
5	1303	111.609104982664	436
5	1303	111.609104982664	437
5	1333	113.580265141895	438
5	1333	113.580265141895	439
5	1333	113.580265141895	440
5	1333	113.580265141895	441
5	1347	115.580265141895	442
5	1347	115.580265141895	443
5	1347	115.580265141895	444
5	1347	115.580265141895	445
5	1356	116.080265141895	446
5	1356	116.080265141895	447
5	1356	116.080265141895	448
5	1356	116.080265141895	449
5	1360	116.109104982664	450
5	1360	116.109104982664	451
5	1360	116.109104982664	452
5	1360	116.109104982664	453
5	1360	116.109104982664	454
5	1385	117.580265141895	455
5	1385	117.580265141895	456
5	1385	117.580265141895	457
5	1385	117.580265141895	458
5	1394	119.580265141895	459
5	1394	119.580265141895	460
5	1394	119.580265141895	461
5	1394	119.580265141895	462
5	1408	120.580265141895	463
5	1408	120.580265141895	464
5	1408	120.580265141895	465
5	1408	120.580265141895	466
5	1412	120.609104982664	467
5	1412	120.609104982664	468
5	1412	120.609104982664	469
5	1412	120.609104982664	470
5	1412	120.609104982664	471
5	1437	121.580265141895	472
5	1437	121.580265141895	473
5	1437	121.580265141895	474
5	1437	121.580265141895	475
5	1446	123.580265141895	476
5	1446	123.580265141895	477
5	1446	123.580265141895	478
5	1446	123.580265141895	479
5	1460	125.080265141895	480
5	1460	125.080265141895	481
5	1460	125.080265141895	482
5	1460	125.080265141895	483
5	1464	125.109104982664	484
5	1464	125.109104982664	485
5	1464	125.109104982664	486
5	1464	125.109104982664	487
5	1464	125.109104982664	488
5	1483	125.580265141895	489
5	1483	125.580265141895	490
5	1483	125.580265141895	491
5	1483	125.580265141895	492
5	1498	127.580265141895	493
5	1498	127.580265141895	494
5	1498	127.580265141895	495
5	1498	127.580265141895	496
5	1507	129.580265141895	497
5	1507	129.580265141895	498
5	1507	129.580265141895	499
5	1507	129.580265141895	500
5	1508	129.580265141895	501
5	1508	129.580265141895	502
5	1508	129.580265141895	503
5	1508	129.580265141895	504
5	1515	129.609104982664	505
5	1515	129.609104982664	506
5	1515	129.609104982664	507
5	1515	129.609104982664	508
5	1515	129.609104982664	509
5	1550	131.580265141895	510
5	1550	131.580265141895	511
5	1550	131.580265141895	512
5	1550	131.580265141895	513
5	1559	133.580265141895	514
5	1559	133.580265141895	515
5	1559	133.580265141895	516
5	1559	133.580265141895	517
5	1568	134.080265141895	518
5	1568	134.080265141895	519
5	1568	134.080265141895	520
5	1568	134.080265141895	521
5	1572	134.109104982664	522
5	1572	134.109104982664	523
5	1572	134.109104982664	524
5	1572	134.109104982664	525
5	1572	134.109104982664	526
5	1602	135.580265141895	527
5	1602	135.580265141895	528
5	1602	135.580265141895	529
5	1602	135.580265141895	530
5	1611	137.580265141895	531
5	1611	137.580265141895	532
5	1611	137.580265141895	533
5	1611	137.580265141895	534
5	1620	138.580265141895	535
5	1620	138.580265141895	536
5	1620	138.580265141895	537
5	1620	138.580265141895	538
5	1624	138.609104982664	539
5	1624	138.609104982664	540
5	1624	138.609104982664	541
5	1624	138.609104982664	542
5	1624	138.609104982664	543
5	1649	139.580265141895	544
5	1649	139.580265141895	545
5	1649	139.580265141895	546
5	1649	139.580265141895	547
5	1663	141.580265141895	548
5	1663	141.580265141895	549
5	1663	141.580265141895	550
5	1663	141.580265141895	551
5	1672	143.080265141895	552
5	1672	143.080265141895	553
5	1672	143.080265141895	554
5	1672	143.080265141895	555
5	1676	143.109104982664	556
5	1676	143.109104982664	557
5	1676	143.109104982664	558
5	1676	143.109104982664	559
5	1676	143.109104982664	560
5	1695	143.580265141895	561
5	1695	143.580265141895	562
5	1695	143.580265141895	563
5	1695	143.580265141895	564
5	1715	145.580265141895	565
5	1715	145.580265141895	566
5	1715	145.580265141895	567
5	1715	145.580265141895	568
5	1725	147.580265141895	569
5	1725	147.580265141895	570
5	1725	147.580265141895	571
5	1725	147.580265141895	572
5	1726	147.580265141895	573
5	1726	147.580265141895	574
5	1726	147.580265141895	575
5	1726	147.580265141895	576
5	1733	147.609104982664	577
5	1733	147.609104982664	578
5	1733	147.609104982664	579
5	1733	147.609104982664	580
5	1733	147.609104982664	581
5	1763	149.580265141895	582
5	1763	149.580265141895	583
5	1763	149.580265141895	584
5	1763	149.580265141895	585
5	1777	151.580265141895	586
5	1777	151.580265141895	587
5	1777	151.580265141895	588
5	1777	151.580265141895	589
5	1786	152.080265141895	590
5	1786	152.080265141895	591
5	1786	152.080265141895	592
5	1786	152.080265141895	593
5	1790	152.109104982664	594
5	1790	152.109104982664	595
5	1790	152.109104982664	596
5	1790	152.109104982664	597
5	1790	152.109104982664	598
5	1815	153.580265141895	599
5	1815	153.580265141895	600
5	1815	153.580265141895	601
5	1815	153.580265141895	602
5	1829	155.580265141895	603
5	1829	155.580265141895	604
5	1829	155.580265141895	605
5	1829	155.580265141895	606
5	1838	156.580265141895	607
5	1838	156.580265141895	608
5	1838	156.580265141895	609
5	1838	156.580265141895	610
5	1842	156.609104982664	611
5	1842	156.609104982664	612
5	1842	156.609104982664	613
5	1842	156.609104982664	614
5	1842	156.609104982664	615
5	1867	157.580265141895	616
5	1867	157.580265141895	617
5	1867	157.580265141895	618
5	1867	157.580265141895	619
5	1876	159.580265141895	620
5	1876	159.580265141895	621
5	1876	159.580265141895	622
5	1876	159.580265141895	623
5	1889	161.080265141895	624
5	1889	161.080265141895	625
5	1889	161.080265141895	626
5	1889	161.080265141895	627
5	1893	161.109104982664	628
5	1893	161.109104982664	629
5	1893	161.109104982664	630
5	1893	161.109104982664	631
5	1893	161.109104982664	632
5	1912	161.580265141895	633
5	1912	161.580265141895	634
5	1912	161.580265141895	635
5	1912	161.580265141895	636
5	1928	163.580265141895	637
5	1928	163.580265141895	638
5	1928	163.580265141895	639
5	1928	163.580265141895	640
5	1941	165.580265141895	641
5	1941	165.580265141895	642
5	1941	165.580265141895	643
5	1941	165.580265141895	644
5	1942	165.580265141895	645
5	1942	165.580265141895	646
5	1942	165.580265141895	647
5	1942	165.580265141895	648
5	1949	165.609104982664	649
5	1949	165.609104982664	650
5	1949	165.609104982664	651
5	1949	165.609104982664	652
5	1949	165.609104982664	653
5	1980	167.580265141895	654
5	1980	167.580265141895	655
5	1980	167.580265141895	656
5	1980	167.580265141895	657
5	1989	169.580265141895	658
5	1989	169.580265141895	659
5	1989	169.580265141895	660
5	1989	169.580265141895	661
5	2002	170.080265141895	662
5	2002	170.080265141895	663
5	2002	170.080265141895	664
5	2002	170.080265141895	665
5	2006	170.109104982664	666
5	2006	170.109104982664	667
5	2006	170.109104982664	668
5	2006	170.109104982664	669
5	2006	170.109104982664	670
5	2031	171.580265141895	671
5	2031	171.580265141895	672
5	2031	171.580265141895	673
5	2031	171.580265141895	674
5	2042	173.580265141895	675
5	2042	173.580265141895	676
5	2042	173.580265141895	677
5	2042	173.580265141895	678
5	2051	174.580265141895	679
5	2051	174.580265141895	680
5	2051	174.580265141895	681
5	2051	174.580265141895	682
5	2055	174.609104982664	683
5	2055	174.609104982664	684
5	2055	174.609104982664	685
5	2055	174.609104982664	686
5	2055	174.609104982664	687
5	2083	175.580265141895	688
5	2083	175.580265141895	689
5	2083	175.580265141895	690
5	2083	175.580265141895	691
5	2094	177.580265141895	692
5	2094	177.580265141895	693
5	2094	177.580265141895	694
5	2094	177.580265141895	695
5	2103	179.080265141895	696
5	2103	179.080265141895	697
5	2103	179.080265141895	698
5	2103	179.080265141895	699
5	2107	179.109104982664	700
5	2107	179.109104982664	701
5	2107	179.109104982664	702
5	2107	179.109104982664	703
5	2107	179.109104982664	704
5	2126	179.580265141895	705
5	2126	179.580265141895	706
5	2126	179.580265141895	707
5	2126	179.580265141895	708
5	2144	181.580265141895	709
5	2144	181.580265141895	710
5	2144	181.580265141895	711
5	2144	181.580265141895	712
5	2155	183.580265141895	713
5	2155	183.580265141895	714
5	2155	183.580265141895	715
5	2155	183.580265141895	716
5	2156	183.580265141895	717
5	2156	183.580265141895	718
5	2156	183.580265141895	719
5	2156	183.580265141895	720
5	2163	183.609104982664	721
5	2163	183.609104982664	722
5	2163	183.609104982664	723
5	2163	183.609104982664	724
5	2163	183.609104982664	725
5	2196	185.580265141895	726
5	2196	185.580265141895	727
5	2196	185.580265141895	728
5	2196	185.580265141895	729
5	2206	187.580265141895	730
5	2206	187.580265141895	731
5	2206	187.580265141895	732
5	2206	187.580265141895	733
5	2216	188.080265141895	734
5	2216	188.080265141895	735
5	2216	188.080265141895	736
5	2216	188.080265141895	737
5	2220	188.109104982664	738
5	2220	188.109104982664	739
5	2220	188.109104982664	740
5	2220	188.109104982664	741
5	2220	188.109104982664	742
5	2245	189.580265141895	743
5	2245	189.580265141895	744
5	2245	189.580265141895	745
5	2245	189.580265141895	746
5	2257	191.580265141895	747
5	2257	191.580265141895	748
5	2257	191.580265141895	749
5	2257	191.580265141895	750
5	2267	192.580265141895	751
5	2267	192.580265141895	752
5	2267	192.580265141895	753
5	2267	192.580265141895	754
5	2271	192.609104982664	755
5	2271	192.609104982664	756
5	2271	192.609104982664	757
5	2271	192.609104982664	758
5	2271	192.609104982664	759
5	2297	193.580265141895	760
5	2297	193.580265141895	761
5	2297	193.580265141895	762
5	2297	193.580265141895	763
5	2309	195.580265141895	764
5	2309	195.580265141895	765
5	2309	195.580265141895	766
5	2309	195.580265141895	767
5	2319	197.080265141895	768
5	2319	197.080265141895	769
5	2319	197.080265141895	770
5	2319	197.080265141895	771
5	2323	197.109104982664	772
5	2323	197.109104982664	773
5	2323	197.109104982664	774
5	2323	197.109104982664	775
5	2323	197.109104982664	776
5	2342	197.580265141895	777
5	2342	197.580265141895	778
5	2342	197.580265141895	779
5	2342	197.580265141895	780
5	2358	199.580265141895	781
5	2358	199.580265141895	782
5	2358	199.580265141895	783
5	2358	199.580265141895	784
5	2370	201.580265141895	785
5	2370	201.580265141895	786
5	2370	201.580265141895	787
5	2370	201.580265141895	788
5	2371	201.580265141895	789
5	2371	201.580265141895	790
5	2371	201.580265141895	791
5	2371	201.580265141895	792
5	2378	201.609104982664	793
5	2378	201.609104982664	794
5	2378	201.609104982664	795
5	2378	201.609104982664	796
5	2378	201.609104982664	797
5	2410	203.580265141895	798
5	2410	203.580265141895	799
5	2410	203.580265141895	800
5	2410	203.580265141895	801
5	2422	205.580265141895	802
5	2422	205.580265141895	803
5	2422	205.580265141895	804
5	2422	205.580265141895	805
5	2431	206.080265141895	806
5	2431	206.080265141895	807
5	2431	206.080265141895	808
5	2431	206.080265141895	809
5	2435	206.109104982664	810
5	2435	206.109104982664	811
5	2435	206.109104982664	812
5	2435	206.109104982664	813
5	2435	206.109104982664	814
5	2461	207.580265141895	815
5	2461	207.580265141895	816
5	2461	207.580265141895	817
5	2461	207.580265141895	818
5	2471	209.580265141895	819
5	2471	209.580265141895	820
5	2471	209.580265141895	821
5	2471	209.580265141895	822
5	2483	210.580265141895	823
5	2483	210.580265141895	824
5	2483	210.580265141895	825
5	2483	210.580265141895	826
5	2487	210.609104982664	827
5	2487	210.609104982664	828
5	2487	210.609104982664	829
5	2487	210.609104982664	830
5	2487	210.609104982664	831
5	2512	211.580265141895	832
5	2512	211.580265141895	833
5	2512	211.580265141895	834
5	2512	211.580265141895	835
5	2523	213.580265141895	836
5	2523	213.580265141895	837
5	2523	213.580265141895	838
5	2523	213.580265141895	839
5	2535	215.080265141895	840
5	2535	215.080265141895	841
5	2535	215.080265141895	842
5	2535	215.080265141895	843
5	2539	215.109104982664	844
5	2539	215.109104982664	845
5	2539	215.109104982664	846
5	2539	215.109104982664	847
5	2539	215.109104982664	848
5	2558	215.580265141895	849
5	2558	215.580265141895	850
5	2558	215.580265141895	851
5	2558	215.580265141895	852
5	2574	217.580265141895	853
5	2574	217.580265141895	854
5	2574	217.580265141895	855
5	2574	217.580265141895	856
5	2584	219.580265141895	857
5	2584	219.580265141895	858
5	2584	219.580265141895	859
5	2584	219.580265141895	860
5	2585	219.580265141895	861
5	2585	219.580265141895	862
5	2585	219.580265141895	863
5	2585	219.580265141895	864
5	2592	219.609104982664	865
5	2592	219.609104982664	866
5	2592	219.609104982664	867
5	2592	219.609104982664	868
5	2592	219.609104982664	869
5	2625	221.580265141895	870
5	2625	221.580265141895	871
5	2625	221.580265141895	872
5	2625	221.580265141895	873
5	2636	223.580265141895	874
5	2636	223.580265141895	875
5	2636	223.580265141895	876
5	2636	223.580265141895	877
5	2645	224.080265141895	878
5	2645	224.080265141895	879
5	2645	224.080265141895	880
5	2645	224.080265141895	881
5	2649	224.109104982664	882
5	2649	224.109104982664	883
5	2649	224.109104982664	884
5	2649	224.109104982664	885
5	2649	224.109104982664	886
5	2677	225.580265141895	887
5	2677	225.580265141895	888
5	2677	225.580265141895	889
5	2677	225.580265141895	890
5	2687	227.580265141895	891
5	2687	227.580265141895	892
5	2687	227.580265141895	893
5	2687	227.580265141895	894
5	2697	228.580265141895	895
5	2697	228.580265141895	896
5	2697	228.580265141895	897
5	2697	228.580265141895	898
5	2701	228.609104982664	899
5	2701	228.609104982664	900
5	2701	228.609104982664	901
5	2701	228.609104982664	902
5	2701	228.609104982664	903
5	2726	229.580265141895	904
5	2726	229.580265141895	905
5	2726	229.580265141895	906
5	2726	229.580265141895	907
5	2738	231.580265141895	908
5	2738	231.580265141895	909
5	2738	231.580265141895	910
5	2738	231.580265141895	911
5	2749	233.080265141895	912
5	2749	233.080265141895	913
5	2749	233.080265141895	914
5	2749	233.080265141895	915
5	2753	233.109104982664	916
5	2753	233.109104982664	917
5	2753	233.109104982664	918
5	2753	233.109104982664	919
5	2753	233.109104982664	920
5	2772	233.580265141895	921
5	2772	233.580265141895	922
5	2772	233.580265141895	923
5	2772	233.580265141895	924
5	2790	235.580265141895	925
5	2790	235.580265141895	926
5	2790	235.580265141895	927
5	2790	235.580265141895	928
5	2800	237.580265141895	929
5	2800	237.580265141895	930
5	2800	237.580265141895	931
5	2800	237.580265141895	932
5	2801	237.580265141895	933
5	2801	237.580265141895	934
5	2801	237.580265141895	935
5	2801	237.580265141895	936
5	2808	237.609104982664	937
5	2808	237.609104982664	938
5	2808	237.609104982664	939
5	2808	237.609104982664	940
5	2808	237.609104982664	941
5	2839	239.580265141895	942
5	2839	239.580265141895	943
5	2839	239.580265141895	944
5	2839	239.580265141895	945
5	2851	241.580265141895	946
5	2851	241.580265141895	947
5	2851	241.580265141895	948
5	2851	241.580265141895	949
5	2861	242.080265141895	950
5	2861	242.080265141895	951
5	2861	242.080265141895	952
5	2861	242.080265141895	953
5	2865	242.109104982664	954
5	2865	242.109104982664	955
5	2865	242.109104982664	956
5	2865	242.109104982664	957
5	2865	242.109104982664	958
5	2891	243.580265141895	959
5	2891	243.580265141895	960
5	2891	243.580265141895	961
5	2891	243.580265141895	962
5	2903	245.580265141895	963
5	2903	245.580265141895	964
5	2903	245.580265141895	965
5	2903	245.580265141895	966
5	2912	246.580265141895	967
5	2912	246.580265141895	968
5	2912	246.580265141895	969
5	2912	246.580265141895	970
5	2916	246.609104982664	971
5	2916	246.609104982664	972
5	2916	246.609104982664	973
5	2916	246.609104982664	974
5	2916	246.609104982664	975
5	2942	247.580265141895	976
5	2942	247.580265141895	977
5	2942	247.580265141895	978
5	2942	247.580265141895	979
5	2952	249.580265141895	980
5	2952	249.580265141895	981
5	2952	249.580265141895	982
5	2952	249.580265141895	983
5	2964	251.080265141895	984
5	2964	251.080265141895	985
5	2964	251.080265141895	986
5	2964	251.080265141895	987
5	2968	251.109104982664	988
5	2968	251.109104982664	989
5	2968	251.109104982664	990
5	2968	251.109104982664	991
5	2968	251.109104982664	992
5	2987	251.580265141895	993
5	2987	251.580265141895	994
5	2987	251.580265141895	995
5	2987	251.580265141895	996
5	3004	253.580265141895	997
5	3004	253.580265141895	998
5	3004	253.580265141895	999
5	3004	253.580265141895	1000
5	3016	255.580265141895	1001
5	3016	255.580265141895	1002
5	3016	255.580265141895	1003
5	3016	255.580265141895	1004
5	3017	255.580265141895	1005
5	3017	255.580265141895	1006
5	3017	255.580265141895	1007
5	3017	255.580265141895	1008
5	3024	255.609104982664	1009
5	3024	255.609104982664	1010
5	3024	255.609104982664	1011
5	3024	255.609104982664	1012
5	3024	255.609104982664	1013
5	3055	257.580265141895	1014
5	3055	257.580265141895	1015
5	3055	257.580265141895	1016
5	3055	257.580265141895	1017
5	3065	259.580265141895	1018
5	3065	259.580265141895	1019
5	3065	259.580265141895	1020
5	3065	259.580265141895	1021
5	3077	260.080265141895	1022
5	3077	260.080265141895	1023
5	3077	260.080265141895	1024
5	3077	260.080265141895	1025
5	3081	260.109104982664	1026
5	3081	260.109104982664	1027
5	3081	260.109104982664	1028
5	3081	260.109104982664	1029
5	3081	260.109104982664	1030
5	3106	261.580265141895	1031
5	3106	261.580265141895	1032
5	3106	261.580265141895	1033
5	3106	261.580265141895	1034
5	3117	263.580265141895	1035
5	3117	263.580265141895	1036
5	3117	263.580265141895	1037
5	3117	263.580265141895	1038
5	3126	264.580265141895	1039
5	3126	264.580265141895	1040
5	3126	264.580265141895	1041
5	3126	264.580265141895	1042
5	3130	264.609104982664	1043
5	3130	264.609104982664	1044
5	3130	264.609104982664	1045
5	3130	264.609104982664	1046
5	3130	264.609104982664	1047
5	3158	265.580265141895	1048
5	3158	265.580265141895	1049
5	3158	265.580265141895	1050
5	3158	265.580265141895	1051
5	3168	267.580265141895	1052
5	3168	267.580265141895	1053
5	3168	267.580265141895	1054
5	3168	267.580265141895	1055
5	3178	269.080265141895	1056
5	3178	269.080265141895	1057
5	3178	269.080265141895	1058
5	3178	269.080265141895	1059
5	3182	269.109104982664	1060
5	3182	269.109104982664	1061
5	3182	269.109104982664	1062
5	3182	269.109104982664	1063
5	3182	269.109104982664	1064
5	3201	269.580265141895	1065
5	3201	269.580265141895	1066
5	3201	269.580265141895	1067
5	3201	269.580265141895	1068
5	3219	271.580265141895	1069
5	3219	271.580265141895	1070
5	3219	271.580265141895	1071
5	3219	271.580265141895	1072
5	3230	273.580265141895	1073
5	3230	273.580265141895	1074
5	3230	273.580265141895	1075
5	3230	273.580265141895	1076
5	3231	273.580265141895	1077
5	3231	273.580265141895	1078
5	3231	273.580265141895	1079
5	3231	273.580265141895	1080
5	3238	273.609104982664	1081
5	3238	273.609104982664	1082
5	3238	273.609104982664	1083
5	3238	273.609104982664	1084
5	3238	273.609104982664	1085
5	3271	275.580265141895	1086
5	3271	275.580265141895	1087
5	3271	275.580265141895	1088
5	3271	275.580265141895	1089
5	3281	277.580265141895	1090
5	3281	277.580265141895	1091
5	3281	277.580265141895	1092
5	3281	277.580265141895	1093
5	3291	278.080265141895	1094
5	3291	278.080265141895	1095
5	3291	278.080265141895	1096
5	3291	278.080265141895	1097
5	3295	278.109104982664	1098
5	3295	278.109104982664	1099
5	3295	278.109104982664	1100
5	3295	278.109104982664	1101
5	3295	278.109104982664	1102
5	3320	279.580265141895	1103
5	3320	279.580265141895	1104
5	3320	279.580265141895	1105
5	3320	279.580265141895	1106
5	3332	281.580265141895	1107
5	3332	281.580265141895	1108
5	3332	281.580265141895	1109
5	3332	281.580265141895	1110
5	3342	282.580265141895	1111
5	3342	282.580265141895	1112
5	3342	282.580265141895	1113
5	3342	282.580265141895	1114
5	3346	282.609104982664	1115
5	3346	282.609104982664	1116
5	3346	282.609104982664	1117
5	3346	282.609104982664	1118
5	3346	282.609104982664	1119
5	3372	283.580265141895	1120
5	3372	283.580265141895	1121
5	3372	283.580265141895	1122
5	3372	283.580265141895	1123
5	3384	285.580265141895	1124
5	3384	285.580265141895	1125
5	3384	285.580265141895	1126
5	3384	285.580265141895	1127
5	3394	287.080265141895	1128
5	3394	287.080265141895	1129
5	3394	287.080265141895	1130
5	3394	287.080265141895	1131
5	3398	287.109104982664	1132
5	3398	287.109104982664	1133
5	3398	287.109104982664	1134
5	3398	287.109104982664	1135
5	3398	287.109104982664	1136
5	3417	287.580265141895	1137
5	3417	287.580265141895	1138
5	3417	287.580265141895	1139
5	3417	287.580265141895	1140
5	3433	289.580265141895	1141
5	3433	289.580265141895	1142
5	3433	289.580265141895	1143
5	3433	289.580265141895	1144
5	3445	291.580265141895	1145
5	3445	291.580265141895	1146
5	3445	291.580265141895	1147
5	3445	291.580265141895	1148
5	3446	291.580265141895	1149
5	3446	291.580265141895	1150
5	3446	291.580265141895	1151
5	3446	291.580265141895	1152
5	3453	291.609104982664	1153
5	3453	291.609104982664	1154
5	3453	291.609104982664	1155
5	3453	291.609104982664	1156
5	3453	291.609104982664	1157
5	3485	293.580265141895	1158
5	3485	293.580265141895	1159
5	3485	293.580265141895	1160
5	3485	293.580265141895	1161
5	3497	295.580265141895	1162
5	3497	295.580265141895	1163
5	3497	295.580265141895	1164
5	3497	295.580265141895	1165
5	3506	296.080265141895	1166
5	3506	296.080265141895	1167
5	3506	296.080265141895	1168
5	3506	296.080265141895	1169
5	3510	296.109104982664	1170
5	3510	296.109104982664	1171
5	3510	296.109104982664	1172
5	3510	296.109104982664	1173
5	3510	296.109104982664	1174
5	3536	297.580265141895	1175
5	3536	297.580265141895	1176
5	3536	297.580265141895	1177
5	3536	297.580265141895	1178
5	3547	299.580265141895	1179
5	3547	299.580265141895	1180
5	3547	299.580265141895	1181
5	3547	299.580265141895	1182
5	3559	300.580265141895	1183
5	3559	300.580265141895	1184
5	3559	300.580265141895	1185
5	3559	300.580265141895	1186
5	3563	300.609104982664	1187
5	3563	300.609104982664	1188
5	3563	300.609104982664	1189
5	3563	300.609104982664	1190
5	3563	300.609104982664	1191
5	3588	301.580265141895	1192
5	3588	301.580265141895	1193
5	3588	301.580265141895	1194
5	3588	301.580265141895	1195
5	3599	303.580265141895	1196
5	3599	303.580265141895	1197
5	3599	303.580265141895	1198
5	3599	303.580265141895	1199
5	3612	305.080265141895	1200
5	3612	305.080265141895	1201
5	3612	305.080265141895	1202
5	3612	305.080265141895	1203
5	3616	305.109104982664	1204
5	3616	305.109104982664	1205
5	3616	305.109104982664	1206
5	3616	305.109104982664	1207
5	3616	305.109104982664	1208
5	3635	305.580265141895	1209
5	3635	305.580265141895	1210
5	3635	305.580265141895	1211
5	3635	305.580265141895	1212
5	3651	307.580265141895	1213
5	3651	307.580265141895	1214
5	3651	307.580265141895	1215
5	3651	307.580265141895	1216
5	3660	309.580265141895	1217
5	3660	309.580265141895	1218
5	3660	309.580265141895	1219
5	3660	309.580265141895	1220
5	3661	309.580265141895	1221
5	3661	309.580265141895	1222
5	3661	309.580265141895	1223
5	3661	309.580265141895	1224
5	3668	309.609104982664	1225
5	3668	309.609104982664	1226
5	3668	309.609104982664	1227
5	3668	309.609104982664	1228
5	3668	309.609104982664	1229
5	3702	311.580265141895	1230
5	3702	311.580265141895	1231
5	3702	311.580265141895	1232
5	3702	311.580265141895	1233
5	3712	313.580265141895	1234
5	3712	313.580265141895	1235
5	3712	313.580265141895	1236
5	3712	313.580265141895	1237
5	3721	314.080265141895	1238
5	3721	314.080265141895	1239
5	3721	314.080265141895	1240
5	3721	314.080265141895	1241
5	3725	314.109104982664	1242
5	3725	314.109104982664	1243
5	3725	314.109104982664	1244
5	3725	314.109104982664	1245
5	3725	314.109104982664	1246
5	3754	315.580265141895	1247
5	3754	315.580265141895	1248
5	3754	315.580265141895	1249
5	3754	315.580265141895	1250
5	3764	317.580265141895	1251
5	3764	317.580265141895	1252
5	3764	317.580265141895	1253
5	3764	317.580265141895	1254
5	3773	318.580265141895	1255
5	3773	318.580265141895	1256
5	3773	318.580265141895	1257
5	3773	318.580265141895	1258
5	3777	318.609104982664	1259
5	3777	318.609104982664	1260
5	3777	318.609104982664	1261
5	3777	318.609104982664	1262
5	3777	318.609104982664	1263
5	3802	319.580265141895	1264
5	3802	319.580265141895	1265
5	3802	319.580265141895	1266
5	3802	319.580265141895	1267
5	3815	321.580265141895	1268
5	3815	321.580265141895	1269
5	3815	321.580265141895	1270
5	3815	321.580265141895	1271
5	3825	323.080265141895	1272
5	3825	323.080265141895	1273
5	3825	323.080265141895	1274
5	3825	323.080265141895	1275
5	3829	323.109104982664	1276
5	3829	323.109104982664	1277
5	3829	323.109104982664	1278
5	3829	323.109104982664	1279
5	3829	323.109104982664	1280
5	3848	323.580265141895	1281
5	3848	323.580265141895	1282
5	3848	323.580265141895	1283
5	3848	323.580265141895	1284
5	3867	325.580265141895	1285
5	3867	325.580265141895	1286
5	3867	325.580265141895	1287
5	3867	325.580265141895	1288
5	3877	327.580265141895	1289
5	3877	327.580265141895	1290
5	3877	327.580265141895	1291
5	3877	327.580265141895	1292
5	3878	327.580265141895	1293
5	3878	327.580265141895	1294
5	3878	327.580265141895	1295
5	3878	327.580265141895	1296
5	3885	327.609104982664	1297
5	3885	327.609104982664	1298
5	3885	327.609104982664	1299
5	3885	327.609104982664	1300
5	3885	327.609104982664	1301
5	3915	329.580265141895	1302
5	3915	329.580265141895	1303
5	3915	329.580265141895	1304
5	3915	329.580265141895	1305
5	3928	331.580265141895	1306
5	3928	331.580265141895	1307
5	3928	331.580265141895	1308
5	3928	331.580265141895	1309
5	3938	332.080265141895	1310
5	3938	332.080265141895	1311
5	3938	332.080265141895	1312
5	3938	332.080265141895	1313
5	3942	332.109104982664	1314
5	3942	332.109104982664	1315
5	3942	332.109104982664	1316
5	3942	332.109104982664	1317
5	3942	332.109104982664	1318
5	3967	333.580265141895	1319
5	3967	333.580265141895	1320
5	3967	333.580265141895	1321
5	3967	333.580265141895	1322
5	3980	335.580265141895	1323
5	3980	335.580265141895	1324
5	3980	335.580265141895	1325
5	3980	335.580265141895	1326
5	3989	336.580265141895	1327
5	3989	336.580265141895	1328
5	3989	336.580265141895	1329
5	3989	336.580265141895	1330
5	3993	336.609104982664	1331
5	3993	336.609104982664	1332
5	3993	336.609104982664	1333
5	3993	336.609104982664	1334
5	3993	336.609104982664	1335
5	4019	337.580265141895	1336
5	4019	337.580265141895	1337
5	4019	337.580265141895	1338
5	4019	337.580265141895	1339
5	4028	339.580265141895	1340
5	4028	339.580265141895	1341
5	4028	339.580265141895	1342
5	4028	339.580265141895	1343
5	4041	341.080265141895	1344
5	4041	341.080265141895	1345
5	4041	341.080265141895	1346
5	4041	341.080265141895	1347
5	4045	341.109104982664	1348
5	4045	341.109104982664	1349
5	4045	341.109104982664	1350
5	4045	341.109104982664	1351
5	4045	341.109104982664	1352
5	4064	341.580265141895	1353
5	4064	341.580265141895	1354
5	4064	341.580265141895	1355
5	4064	341.580265141895	1356
5	4080	343.580265141895	1357
5	4080	343.580265141895	1358
5	4080	343.580265141895	1359
5	4080	343.580265141895	1360
5	4093	345.580265141895	1361
5	4093	345.580265141895	1362
5	4093	345.580265141895	1363
5	4093	345.580265141895	1364
5	4094	345.580265141895	1365
5	4094	345.580265141895	1366
5	4094	345.580265141895	1367
5	4094	345.580265141895	1368
5	4101	345.609104982664	1369
5	4101	345.609104982664	1370
5	4101	345.609104982664	1371
5	4101	345.609104982664	1372
5	4101	345.609104982664	1373
5	4132	347.580265141895	1374
5	4132	347.580265141895	1375
5	4132	347.580265141895	1376
5	4132	347.580265141895	1377
5	4141	349.580265141895	1378
5	4141	349.580265141895	1379
5	4141	349.580265141895	1380
5	4141	349.580265141895	1381
5	4154	350.080265141895	1382
5	4154	350.080265141895	1383
5	4154	350.080265141895	1384
5	4154	350.080265141895	1385
5	4158	350.109104982664	1386
5	4158	350.109104982664	1387
5	4158	350.109104982664	1388
5	4158	350.109104982664	1389
5	4158	350.109104982664	1390
5	4183	351.580265141895	1391
5	4183	351.580265141895	1392
5	4183	351.580265141895	1393
5	4183	351.580265141895	1394
5	4193	353.580265141895	1395
5	4193	353.580265141895	1396
5	4193	353.580265141895	1397
5	4193	353.580265141895	1398
5	4202	354.580265141895	1399
5	4202	354.580265141895	1400
5	4202	354.580265141895	1401
5	4202	354.580265141895	1402
5	4206	354.609104982664	1403
5	4206	354.609104982664	1404
5	4206	354.609104982664	1405
5	4206	354.609104982664	1406
5	4206	354.609104982664	1407
5	4235	355.580265141895	1408
5	4235	355.580265141895	1409
5	4235	355.580265141895	1410
5	4235	355.580265141895	1411
5	4245	357.580265141895	1412
5	4245	357.580265141895	1413
5	4245	357.580265141895	1414
5	4245	357.580265141895	1415
5	4254	359.080265141895	1416
5	4254	359.080265141895	1417
5	4254	359.080265141895	1418
5	4254	359.080265141895	1419
5	4258	359.109104982664	1420
5	4258	359.109104982664	1421
5	4258	359.109104982664	1422
5	4258	359.109104982664	1423
5	4258	359.109104982664	1424
5	4277	359.580265141895	1425
5	4277	359.580265141895	1426
5	4277	359.580265141895	1427
5	4277	359.580265141895	1428
5	4296	361.580265141895	1429
5	4296	361.580265141895	1430
5	4296	361.580265141895	1431
5	4296	361.580265141895	1432
5	4306	363.580265141895	1433
5	4306	363.580265141895	1434
5	4306	363.580265141895	1435
5	4306	363.580265141895	1436
5	4307	363.580265141895	1437
5	4307	363.580265141895	1438
5	4307	363.580265141895	1439
5	4307	363.580265141895	1440
5	4314	363.609104982664	1441
5	4314	363.609104982664	1442
5	4314	363.609104982664	1443
5	4314	363.609104982664	1444
5	4314	363.609104982664	1445
5	4348	365.580265141895	1446
5	4348	365.580265141895	1447
5	4348	365.580265141895	1448
5	4348	365.580265141895	1449
5	4358	367.580265141895	1450
5	4358	367.580265141895	1451
5	4358	367.580265141895	1452
5	4358	367.580265141895	1453
5	4367	368.080265141895	1454
5	4367	368.080265141895	1455
5	4367	368.080265141895	1456
5	4367	368.080265141895	1457
5	4371	368.109104982664	1458
5	4371	368.109104982664	1459
5	4371	368.109104982664	1460
5	4371	368.109104982664	1461
5	4371	368.109104982664	1462
5	4396	369.580265141895	1463
5	4396	369.580265141895	1464
5	4396	369.580265141895	1465
5	4396	369.580265141895	1466
5	4409	371.580265141895	1467
5	4409	371.580265141895	1468
5	4409	371.580265141895	1469
5	4409	371.580265141895	1470
5	4419	372.580265141895	1471
5	4419	372.580265141895	1472
5	4419	372.580265141895	1473
5	4419	372.580265141895	1474
5	4423	372.609104982664	1475
5	4423	372.609104982664	1476
5	4423	372.609104982664	1477
5	4423	372.609104982664	1478
5	4423	372.609104982664	1479
5	4448	373.580265141895	1480
5	4448	373.580265141895	1481
5	4448	373.580265141895	1482
5	4448	373.580265141895	1483
5	4461	375.580265141895	1484
5	4461	375.580265141895	1485
5	4461	375.580265141895	1486
5	4461	375.580265141895	1487
5	4471	377.080265141895	1488
5	4471	377.080265141895	1489
5	4471	377.080265141895	1490
5	4471	377.080265141895	1491
5	4475	377.109104982664	1492
5	4475	377.109104982664	1493
5	4475	377.109104982664	1494
5	4475	377.109104982664	1495
5	4475	377.109104982664	1496
5	4494	377.580265141895	1497
5	4494	377.580265141895	1498
5	4494	377.580265141895	1499
5	4494	377.580265141895	1500
5	4509	379.580265141895	1501
5	4509	379.580265141895	1502
5	4509	379.580265141895	1503
5	4509	379.580265141895	1504
5	4522	381.580265141895	1505
5	4522	381.580265141895	1506
5	4522	381.580265141895	1507
5	4522	381.580265141895	1508
5	4523	381.580265141895	1509
5	4523	381.580265141895	1510
5	4523	381.580265141895	1511
5	4523	381.580265141895	1512
5	4530	381.609104982664	1513
5	4530	381.609104982664	1514
5	4530	381.609104982664	1515
5	4530	381.609104982664	1516
5	4530	381.609104982664	1517
5	4561	383.580265141895	1518
5	4561	383.580265141895	1519
5	4561	383.580265141895	1520
5	4561	383.580265141895	1521
5	4574	385.580265141895	1522
5	4574	385.580265141895	1523
5	4574	385.580265141895	1524
5	4574	385.580265141895	1525
5	4583	386.080265141895	1526
5	4583	386.080265141895	1527
5	4583	386.080265141895	1528
5	4583	386.080265141895	1529
5	4587	386.109104982664	1530
5	4587	386.109104982664	1531
5	4587	386.109104982664	1532
5	4587	386.109104982664	1533
5	4587	386.109104982664	1534
5	4613	387.580265141895	1535
5	4613	387.580265141895	1536
5	4613	387.580265141895	1537
5	4613	387.580265141895	1538
5	4622	389.580265141895	1539
5	4622	389.580265141895	1540
5	4622	389.580265141895	1541
5	4622	389.580265141895	1542
5	4635	390.580265141895	1543
5	4635	390.580265141895	1544
5	4635	390.580265141895	1545
5	4635	390.580265141895	1546
5	4639	390.609104982664	1547
5	4639	390.609104982664	1548
5	4639	390.609104982664	1549
5	4639	390.609104982664	1550
5	4639	390.609104982664	1551
5	4664	391.580265141895	1552
5	4664	391.580265141895	1553
5	4664	391.580265141895	1554
5	4664	391.580265141895	1555
5	4674	393.580265141895	1556
5	4674	393.580265141895	1557
5	4674	393.580265141895	1558
5	4674	393.580265141895	1559
5	4687	395.080265141895	1560
5	4687	395.080265141895	1561
5	4687	395.080265141895	1562
5	4687	395.080265141895	1563
5	4693	395.204469950436	1564
5	4693	395.204469950436	1565
5	4693	395.204469950436	1566
5	4693	395.204469950436	1567
5	4693	395.204469950436	1568
5	4707	395.580265141895	1569
5	4707	395.580265141895	1570
5	4707	395.580265141895	1571
5	4707	395.580265141895	1572
5	4726	397.580265141895	1573
5	4726	397.580265141895	1574
5	4726	397.580265141895	1575
5	4726	397.580265141895	1576
5	4735	399.580265141895	1577
5	4735	399.580265141895	1578
5	4735	399.580265141895	1579
5	4735	399.580265141895	1580
5	4736	399.580265141895	1581
5	4736	399.580265141895	1582
5	4736	399.580265141895	1583
5	4736	399.580265141895	1584
5	4743	399.609104982664	1585
5	4743	399.609104982664	1586
5	4743	399.609104982664	1587
5	4743	399.609104982664	1588
5	4743	399.609104982664	1589
5	4776	401.580265141895	1590
5	4776	401.580265141895	1591
5	4776	401.580265141895	1592
5	4776	401.580265141895	1593
5	4787	403.580265141895	1594
5	4787	403.580265141895	1595
5	4787	403.580265141895	1596
5	4787	403.580265141895	1597
5	4796	404.080265141895	1598
5	4796	404.080265141895	1599
5	4796	404.080265141895	1600
5	4796	404.080265141895	1601
5	4800	404.109104982664	1602
5	4800	404.109104982664	1603
5	4800	404.109104982664	1604
5	4800	404.109104982664	1605
5	4800	404.109104982664	1606
5	4828	405.580265141895	1607
5	4828	405.580265141895	1608
5	4828	405.580265141895	1609
5	4828	405.580265141895	1610
5	4839	407.580265141895	1611
5	4839	407.580265141895	1612
5	4839	407.580265141895	1613
5	4839	407.580265141895	1614
5	4848	408.580265141895	1615
5	4848	408.580265141895	1616
5	4848	408.580265141895	1617
5	4848	408.580265141895	1618
5	4852	408.609104982664	1619
5	4852	408.609104982664	1620
5	4852	408.609104982664	1621
5	4852	408.609104982664	1622
5	4852	408.609104982664	1623
5	4877	409.580265141895	1624
5	4877	409.580265141895	1625
5	4877	409.580265141895	1626
5	4877	409.580265141895	1627
5	4889	411.580265141895	1628
5	4889	411.580265141895	1629
5	4889	411.580265141895	1630
5	4889	411.580265141895	1631
5	4900	413.080265141895	1632
5	4900	413.080265141895	1633
5	4900	413.080265141895	1634
5	4900	413.080265141895	1635
5	4904	413.109104982664	1636
5	4904	413.109104982664	1637
5	4904	413.109104982664	1638
5	4904	413.109104982664	1639
5	4904	413.109104982664	1640
5	4923	413.580265141895	1641
5	4923	413.580265141895	1642
5	4923	413.580265141895	1643
5	4923	413.580265141895	1644
5	4941	415.580265141895	1645
5	4941	415.580265141895	1646
5	4941	415.580265141895	1647
5	4941	415.580265141895	1648
5	4952	417.580265141895	1649
5	4952	417.580265141895	1650
5	4952	417.580265141895	1651
5	4952	417.580265141895	1652
5	4953	417.580265141895	1653
5	4953	417.580265141895	1654
5	4953	417.580265141895	1655
5	4953	417.580265141895	1656
5	4960	417.609104982664	1657
5	4960	417.609104982664	1658
5	4960	417.609104982664	1659
5	4960	417.609104982664	1660
5	4960	417.609104982664	1661
5	4990	419.580265141895	1662
5	4990	419.580265141895	1663
5	4990	419.580265141895	1664
5	4990	419.580265141895	1665
5	5002	421.580265141895	1666
5	5002	421.580265141895	1667
5	5002	421.580265141895	1668
5	5002	421.580265141895	1669
5	5013	422.080265141895	1670
5	5013	422.080265141895	1671
5	5013	422.080265141895	1672
5	5013	422.080265141895	1673
5	5017	422.109104982664	1674
5	5017	422.109104982664	1675
5	5017	422.109104982664	1676
5	5017	422.109104982664	1677
5	5017	422.109104982664	1678
5	5042	423.580265141895	1679
5	5042	423.580265141895	1680
5	5042	423.580265141895	1681
5	5042	423.580265141895	1682
5	5054	425.580265141895	1683
5	5054	425.580265141895	1684
5	5054	425.580265141895	1685
5	5054	425.580265141895	1686
5	5063	426.580265141895	1687
5	5063	426.580265141895	1688
5	5063	426.580265141895	1689
5	5063	426.580265141895	1690
5	5067	426.609104982664	1691
5	5067	426.609104982664	1692
5	5067	426.609104982664	1693
5	5067	426.609104982664	1694
5	5067	426.609104982664	1695
5	5094	427.580265141895	1696
5	5094	427.580265141895	1697
5	5094	427.580265141895	1698
5	5094	427.580265141895	1699
5	5103	429.580265141895	1700
5	5103	429.580265141895	1701
5	5103	429.580265141895	1702
5	5103	429.580265141895	1703
5	5115	431.080265141895	1704
5	5115	431.080265141895	1705
5	5115	431.080265141895	1706
5	5115	431.080265141895	1707
5	5119	431.109104982664	1708
5	5119	431.109104982664	1709
5	5119	431.109104982664	1710
5	5119	431.109104982664	1711
5	5119	431.109104982664	1712
5	5138	431.580265141895	1713
5	5138	431.580265141895	1714
5	5138	431.580265141895	1715
5	5138	431.580265141895	1716
5	5155	433.580265141895	1717
5	5155	433.580265141895	1718
5	5155	433.580265141895	1719
5	5155	433.580265141895	1720
5	5167	435.580265141895	1721
5	5167	435.580265141895	1722
5	5167	435.580265141895	1723
5	5167	435.580265141895	1724
5	5168	435.580265141895	1725
5	5168	435.580265141895	1726
5	5168	435.580265141895	1727
5	5168	435.580265141895	1728
5	5175	435.609104982664	1729
5	5175	435.609104982664	1730
5	5175	435.609104982664	1731
5	5175	435.609104982664	1732
5	5175	435.609104982664	1733
5	5207	437.580265141895	1734
5	5207	437.580265141895	1735
5	5207	437.580265141895	1736
5	5207	437.580265141895	1737
5	5216	439.580265141895	1738
5	5216	439.580265141895	1739
5	5216	439.580265141895	1740
5	5216	439.580265141895	1741
5	5228	440.080265141895	1742
5	5228	440.080265141895	1743
5	5228	440.080265141895	1744
5	5228	440.080265141895	1745
5	5232	440.109104982664	1746
5	5232	440.109104982664	1747
5	5232	440.109104982664	1748
5	5232	440.109104982664	1749
5	5232	440.109104982664	1750
5	5257	441.580265141895	1751
5	5257	441.580265141895	1752
5	5257	441.580265141895	1753
5	5257	441.580265141895	1754
5	5268	443.580265141895	1755
5	5268	443.580265141895	1756
5	5268	443.580265141895	1757
5	5268	443.580265141895	1758
5	5277	444.580265141895	1759
5	5277	444.580265141895	1760
5	5277	444.580265141895	1761
5	5277	444.580265141895	1762
5	5281	444.609104982664	1763
5	5281	444.609104982664	1764
5	5281	444.609104982664	1765
5	5281	444.609104982664	1766
5	5281	444.609104982664	1767
5	5309	445.580265141895	1768
5	5309	445.580265141895	1769
5	5309	445.580265141895	1770
5	5309	445.580265141895	1771
5	5320	447.580265141895	1772
5	5320	447.580265141895	1773
5	5320	447.580265141895	1774
5	5320	447.580265141895	1775
5	5329	449.080265141895	1776
5	5329	449.080265141895	1777
5	5329	449.080265141895	1778
5	5329	449.080265141895	1779
5	5333	449.109104982664	1780
5	5333	449.109104982664	1781
5	5333	449.109104982664	1782
5	5333	449.109104982664	1783
5	5333	449.109104982664	1784
5	5352	449.580265141895	1785
5	5352	449.580265141895	1786
5	5352	449.580265141895	1787
5	5352	449.580265141895	1788
5	5370	451.580265141895	1789
5	5370	451.580265141895	1790
5	5370	451.580265141895	1791
5	5370	451.580265141895	1792
5	5381	453.580265141895	1793
5	5381	453.580265141895	1794
5	5381	453.580265141895	1795
5	5381	453.580265141895	1796
5	5382	453.580265141895	1797
5	5382	453.580265141895	1798
5	5382	453.580265141895	1799
5	5382	453.580265141895	1800
5	5389	453.609104982664	1801
5	5389	453.609104982664	1802
5	5389	453.609104982664	1803
5	5389	453.609104982664	1804
5	5389	453.609104982664	1805
5	5422	455.580265141895	1806
5	5422	455.580265141895	1807
5	5422	455.580265141895	1808
5	5422	455.580265141895	1809
5	5433	457.580265141895	1810
5	5433	457.580265141895	1811
5	5433	457.580265141895	1812
5	5433	457.580265141895	1813
5	5442	458.080265141895	1814
5	5442	458.080265141895	1815
5	5442	458.080265141895	1816
5	5442	458.080265141895	1817
5	5446	458.109104982664	1818
5	5446	458.109104982664	1819
5	5446	458.109104982664	1820
5	5446	458.109104982664	1821
5	5446	458.109104982664	1822
5	5471	459.580265141895	1823
5	5471	459.580265141895	1824
5	5471	459.580265141895	1825
5	5471	459.580265141895	1826
5	5483	461.580265141895	1827
5	5483	461.580265141895	1828
5	5483	461.580265141895	1829
5	5483	461.580265141895	1830
5	5494	462.580265141895	1831
5	5494	462.580265141895	1832
5	5494	462.580265141895	1833
5	5494	462.580265141895	1834
5	5498	462.609104982664	1835
5	5498	462.609104982664	1836
5	5498	462.609104982664	1837
5	5498	462.609104982664	1838
5	5498	462.609104982664	1839
5	5523	463.580265141895	1840
5	5523	463.580265141895	1841
5	5523	463.580265141895	1842
5	5523	463.580265141895	1843
5	5535	465.580265141895	1844
5	5535	465.580265141895	1845
5	5535	465.580265141895	1846
5	5535	465.580265141895	1847
5	5546	467.080265141895	1848
5	5546	467.080265141895	1849
5	5546	467.080265141895	1850
5	5546	467.080265141895	1851
5	5550	467.109104982664	1852
5	5550	467.109104982664	1853
5	5550	467.109104982664	1854
5	5550	467.109104982664	1855
5	5550	467.109104982664	1856
5	5569	467.580265141895	1857
5	5569	467.580265141895	1858
5	5569	467.580265141895	1859
5	5569	467.580265141895	1860
5	5584	469.580265141895	1861
5	5584	469.580265141895	1862
5	5584	469.580265141895	1863
5	5584	469.580265141895	1864
5	5596	471.580265141895	1865
5	5596	471.580265141895	1866
5	5596	471.580265141895	1867
5	5596	471.580265141895	1868
5	5597	471.580265141895	1869
5	5597	471.580265141895	1870
5	5597	471.580265141895	1871
5	5597	471.580265141895	1872
5	5604	471.609104982664	1873
5	5604	471.609104982664	1874
5	5604	471.609104982664	1875
5	5604	471.609104982664	1876
5	5604	471.609104982664	1877
5	5636	473.580265141895	1878
5	5636	473.580265141895	1879
5	5636	473.580265141895	1880
5	5636	473.580265141895	1881
5	5648	475.580265141895	1882
5	5648	475.580265141895	1883
5	5648	475.580265141895	1884
5	5648	475.580265141895	1885
5	5657	476.080265141895	1886
5	5657	476.080265141895	1887
5	5657	476.080265141895	1888
5	5657	476.080265141895	1889
5	5661	476.109104982664	1890
5	5661	476.109104982664	1891
5	5661	476.109104982664	1892
5	5661	476.109104982664	1893
5	5661	476.109104982664	1894
5	5688	477.580265141895	1895
5	5688	477.580265141895	1896
5	5688	477.580265141895	1897
5	5688	477.580265141895	1898
5	5697	479.580265141895	1899
5	5697	479.580265141895	1900
5	5697	479.580265141895	1901
5	5697	479.580265141895	1902
5	5709	480.580265141895	1903
5	5709	480.580265141895	1904
5	5709	480.580265141895	1905
5	5709	480.580265141895	1906
5	5713	480.609104982664	1907
5	5713	480.609104982664	1908
5	5713	480.609104982664	1909
5	5713	480.609104982664	1910
5	5713	480.609104982664	1911
5	5738	481.580265141895	1912
5	5738	481.580265141895	1913
5	5738	481.580265141895	1914
5	5738	481.580265141895	1915
5	5749	483.580265141895	1916
5	5749	483.580265141895	1917
5	5749	483.580265141895	1918
5	5749	483.580265141895	1919
5	5761	485.080265141895	1920
5	5761	485.080265141895	1921
5	5761	485.080265141895	1922
5	5761	485.080265141895	1923
5	5765	485.109104982664	1924
5	5765	485.109104982664	1925
5	5765	485.109104982664	1926
5	5765	485.109104982664	1927
5	5765	485.109104982664	1928
5	5784	485.580265141895	1929
5	5784	485.580265141895	1930
5	5784	485.580265141895	1931
5	5784	485.580265141895	1932
5	5801	487.580265141895	1933
5	5801	487.580265141895	1934
5	5801	487.580265141895	1935
5	5801	487.580265141895	1936
5	5810	489.580265141895	1937
5	5810	489.580265141895	1938
5	5810	489.580265141895	1939
5	5810	489.580265141895	1940
5	5811	489.580265141895	1941
5	5811	489.580265141895	1942
5	5811	489.580265141895	1943
5	5811	489.580265141895	1944
5	5818	489.609104982664	1945
5	5818	489.609104982664	1946
5	5818	489.609104982664	1947
5	5818	489.609104982664	1948
5	5818	489.609104982664	1949
5	5851	491.580265141895	1950
5	5851	491.580265141895	1951
5	5851	491.580265141895	1952
5	5851	491.580265141895	1953
5	5862	493.580265141895	1954
5	5862	493.580265141895	1955
5	5862	493.580265141895	1956
5	5862	493.580265141895	1957
5	5871	494.080265141895	1958
5	5871	494.080265141895	1959
5	5871	494.080265141895	1960
5	5871	494.080265141895	1961
5	5875	494.109104982664	1962
5	5875	494.109104982664	1963
5	5875	494.109104982664	1964
5	5875	494.109104982664	1965
5	5875	494.109104982664	1966
5	5903	495.580265141895	1967
5	5903	495.580265141895	1968
5	5903	495.580265141895	1969
5	5903	495.580265141895	1970
5	5914	497.580265141895	1971
5	5914	497.580265141895	1972
5	5914	497.580265141895	1973
5	5914	497.580265141895	1974
5	5923	498.580265141895	1975
5	5923	498.580265141895	1976
5	5923	498.580265141895	1977
5	5923	498.580265141895	1978
5	5927	498.609104982664	1979
5	5927	498.609104982664	1980
5	5927	498.609104982664	1981
5	5927	498.609104982664	1982
5	5927	498.609104982664	1983
5	5952	499.580265141895	1984
5	5952	499.580265141895	1985
5	5952	499.580265141895	1986
5	5952	499.580265141895	1987
5	5964	501.580265141895	1988
5	5964	501.580265141895	1989
5	5964	501.580265141895	1990
5	5964	501.580265141895	1991
5	5975	503.080265141895	1992
5	5975	503.080265141895	1993
5	5975	503.080265141895	1994
5	5975	503.080265141895	1995
5	5979	503.109104982664	1996
5	5979	503.109104982664	1997
5	5979	503.109104982664	1998
5	5979	503.109104982664	1999
5	5979	503.109104982664	2000
5	5998	503.580265141895	2001
5	5998	503.580265141895	2002
5	5998	503.580265141895	2003
5	5998	503.580265141895	2004
5	6016	505.580265141895	2005
5	6016	505.580265141895	2006
5	6016	505.580265141895	2007
5	6016	505.580265141895	2008
5	6027	507.580265141895	2009
5	6027	507.580265141895	2010
5	6027	507.580265141895	2011
5	6027	507.580265141895	2012
5	6028	507.580265141895	2013
5	6028	507.580265141895	2014
5	6028	507.580265141895	2015
5	6028	507.580265141895	2016
5	6035	507.609104982664	2017
5	6035	507.609104982664	2018
5	6035	507.609104982664	2019
5	6035	507.609104982664	2020
5	6035	507.609104982664	2021
5	6065	509.580265141895	2022
5	6065	509.580265141895	2023
5	6065	509.580265141895	2024
5	6065	509.580265141895	2025
5	6077	511.580265141895	2026
5	6077	511.580265141895	2027
5	6077	511.580265141895	2028
5	6077	511.580265141895	2029
5	6088	512.080265141895	2030
5	6088	512.080265141895	2031
5	6088	512.080265141895	2032
5	6088	512.080265141895	2033
5	6092	512.109104982664	2034
5	6092	512.109104982664	2035
5	6092	512.109104982664	2036
5	6092	512.109104982664	2037
5	6092	512.109104982664	2038
5	6117	513.580265141895	2039
5	6117	513.580265141895	2040
5	6117	513.580265141895	2041
5	6117	513.580265141895	2042
5	6129	515.580265141895	2043
5	6129	515.580265141895	2044
5	6129	515.580265141895	2045
5	6129	515.580265141895	2046
5	6138	516.580265141895	2047
5	6138	516.580265141895	2048
5	6138	516.580265141895	2049
5	6138	516.580265141895	2050
5	6142	516.609104982664	2051
5	6142	516.609104982664	2052
5	6142	516.609104982664	2053
5	6142	516.609104982664	2054
5	6142	516.609104982664	2055
5	6169	517.580265141895	2056
5	6169	517.580265141895	2057
5	6169	517.580265141895	2058
5	6169	517.580265141895	2059
5	6178	519.580265141895	2060
5	6178	519.580265141895	2061
5	6178	519.580265141895	2062
5	6178	519.580265141895	2063
5	6190	521.080265141895	2064
5	6190	521.080265141895	2065
5	6190	521.080265141895	2066
5	6190	521.080265141895	2067
5	6194	521.109104982664	2068
5	6194	521.109104982664	2069
5	6194	521.109104982664	2070
5	6194	521.109104982664	2071
5	6194	521.109104982664	2072
5	6213	521.580265141895	2073
5	6213	521.580265141895	2074
5	6213	521.580265141895	2075
5	6213	521.580265141895	2076
5	6230	523.580265141895	2077
5	6230	523.580265141895	2078
5	6230	523.580265141895	2079
5	6230	523.580265141895	2080
5	6242	525.580265141895	2081
5	6242	525.580265141895	2082
5	6242	525.580265141895	2083
5	6242	525.580265141895	2084
5	6243	525.580265141895	2085
5	6243	525.580265141895	2086
5	6243	525.580265141895	2087
5	6243	525.580265141895	2088
5	6250	525.609104982664	2089
5	6250	525.609104982664	2090
5	6250	525.609104982664	2091
5	6250	525.609104982664	2092
5	6250	525.609104982664	2093
5	6282	527.580265141895	2094
5	6282	527.580265141895	2095
5	6282	527.580265141895	2096
5	6282	527.580265141895	2097
5	6291	529.580265141895	2098
5	6291	529.580265141895	2099
5	6291	529.580265141895	2100
5	6291	529.580265141895	2101
5	6303	530.080265141895	2102
5	6303	530.080265141895	2103
5	6303	530.080265141895	2104
5	6303	530.080265141895	2105
5	6307	530.109104982664	2106
5	6307	530.109104982664	2107
5	6307	530.109104982664	2108
5	6307	530.109104982664	2109
5	6307	530.109104982664	2110
5	6332	531.580265141895	2111
5	6332	531.580265141895	2112
5	6332	531.580265141895	2113
5	6332	531.580265141895	2114
5	6343	533.580265141895	2115
5	6343	533.580265141895	2116
5	6343	533.580265141895	2117
5	6343	533.580265141895	2118
5	6352	534.580265141895	2119
5	6352	534.580265141895	2120
5	6352	534.580265141895	2121
5	6352	534.580265141895	2122
5	6356	534.609104982664	2123
5	6356	534.609104982664	2124
5	6356	534.609104982664	2125
5	6356	534.609104982664	2126
5	6356	534.609104982664	2127
5	6384	535.580265141895	2128
5	6384	535.580265141895	2129
5	6384	535.580265141895	2130
5	6384	535.580265141895	2131
5	6395	537.580265141895	2132
5	6395	537.580265141895	2133
5	6395	537.580265141895	2134
5	6395	537.580265141895	2135
5	6404	539.080265141895	2136
5	6404	539.080265141895	2137
5	6404	539.080265141895	2138
5	6404	539.080265141895	2139
5	6408	539.109104982664	2140
5	6408	539.109104982664	2141
5	6408	539.109104982664	2142
5	6408	539.109104982664	2143
5	6408	539.109104982664	2144
5	6427	539.580265141895	2145
5	6427	539.580265141895	2146
5	6427	539.580265141895	2147
5	6427	539.580265141895	2148
5	6445	541.580265141895	2149
5	6445	541.580265141895	2150
5	6445	541.580265141895	2151
5	6445	541.580265141895	2152
5	6456	543.580265141895	2153
5	6456	543.580265141895	2154
5	6456	543.580265141895	2155
5	6456	543.580265141895	2156
5	6457	543.580265141895	2157
5	6457	543.580265141895	2158
5	6457	543.580265141895	2159
5	6457	543.580265141895	2160
5	6464	543.609104982664	2161
5	6464	543.609104982664	2162
5	6464	543.609104982664	2163
5	6464	543.609104982664	2164
5	6464	543.609104982664	2165
5	6497	545.580265141895	2166
5	6497	545.580265141895	2167
5	6497	545.580265141895	2168
5	6497	545.580265141895	2169
5	6508	547.580265141895	2170
5	6508	547.580265141895	2171
5	6508	547.580265141895	2172
5	6508	547.580265141895	2173
5	6517	548.080265141895	2174
5	6517	548.080265141895	2175
5	6517	548.080265141895	2176
5	6517	548.080265141895	2177
5	6521	548.109104982664	2178
5	6521	548.109104982664	2179
5	6521	548.109104982664	2180
5	6521	548.109104982664	2181
5	6521	548.109104982664	2182
5	6546	549.580265141895	2183
5	6546	549.580265141895	2184
5	6546	549.580265141895	2185
5	6546	549.580265141895	2186
5	6558	551.580265141895	2187
5	6558	551.580265141895	2188
5	6558	551.580265141895	2189
5	6558	551.580265141895	2190
5	6569	552.580265141895	2191
5	6569	552.580265141895	2192
5	6569	552.580265141895	2193
5	6569	552.580265141895	2194
5	6573	552.609104982664	2195
5	6573	552.609104982664	2196
5	6573	552.609104982664	2197
5	6573	552.609104982664	2198
5	6573	552.609104982664	2199
5	6598	553.580265141895	2200
5	6598	553.580265141895	2201
5	6598	553.580265141895	2202
5	6598	553.580265141895	2203
5	6610	555.580265141895	2204
5	6610	555.580265141895	2205
5	6610	555.580265141895	2206
5	6610	555.580265141895	2207
5	6621	557.080265141895	2208
5	6621	557.080265141895	2209
5	6621	557.080265141895	2210
5	6621	557.080265141895	2211
5	6625	557.109104982664	2212
5	6625	557.109104982664	2213
5	6625	557.109104982664	2214
5	6625	557.109104982664	2215
5	6625	557.109104982664	2216
5	6644	557.580265141895	2217
5	6644	557.580265141895	2218
5	6644	557.580265141895	2219
5	6644	557.580265141895	2220
5	6659	559.580265141895	2221
5	6659	559.580265141895	2222
5	6659	559.580265141895	2223
5	6659	559.580265141895	2224
5	6671	561.580265141895	2225
5	6671	561.580265141895	2226
5	6671	561.580265141895	2227
5	6671	561.580265141895	2228
5	6672	561.580265141895	2229
5	6672	561.580265141895	2230
5	6672	561.580265141895	2231
5	6672	561.580265141895	2232
5	6679	561.609104982664	2233
5	6679	561.609104982664	2234
5	6679	561.609104982664	2235
5	6679	561.609104982664	2236
5	6679	561.609104982664	2237
5	6711	563.580265141895	2238
5	6711	563.580265141895	2239
5	6711	563.580265141895	2240
5	6711	563.580265141895	2241
5	6723	565.580265141895	2242
5	6723	565.580265141895	2243
5	6723	565.580265141895	2244
5	6723	565.580265141895	2245
5	6732	566.080265141895	2246
5	6732	566.080265141895	2247
5	6732	566.080265141895	2248
5	6732	566.080265141895	2249
5	6736	566.109104982664	2250
5	6736	566.109104982664	2251
5	6736	566.109104982664	2252
5	6736	566.109104982664	2253
5	6736	566.109104982664	2254
5	6763	567.580265141895	2255
5	6763	567.580265141895	2256
5	6763	567.580265141895	2257
5	6763	567.580265141895	2258
5	6772	569.580265141895	2259
5	6772	569.580265141895	2260
5	6772	569.580265141895	2261
5	6772	569.580265141895	2262
5	6784	570.580265141895	2263
5	6784	570.580265141895	2264
5	6784	570.580265141895	2265
5	6784	570.580265141895	2266
5	6788	570.609104982664	2267
5	6788	570.609104982664	2268
5	6788	570.609104982664	2269
5	6788	570.609104982664	2270
5	6788	570.609104982664	2271
5	6813	571.580265141895	2272
5	6813	571.580265141895	2273
5	6813	571.580265141895	2274
5	6813	571.580265141895	2275
5	6824	573.580265141895	2276
5	6824	573.580265141895	2277
5	6824	573.580265141895	2278
5	6824	573.580265141895	2279
5	6836	575.080265141895	2280
5	6836	575.080265141895	2281
5	6836	575.080265141895	2282
5	6836	575.080265141895	2283
5	6840	575.109104982664	2284
5	6840	575.109104982664	2285
5	6840	575.109104982664	2286
5	6840	575.109104982664	2287
5	6840	575.109104982664	2288
5	6859	575.580265141895	2289
5	6859	575.580265141895	2290
5	6859	575.580265141895	2291
5	6859	575.580265141895	2292
5	6876	577.580265141895	2293
5	6876	577.580265141895	2294
5	6876	577.580265141895	2295
5	6876	577.580265141895	2296
5	6885	579.580265141895	2297
5	6885	579.580265141895	2298
5	6885	579.580265141895	2299
5	6885	579.580265141895	2300
5	6886	579.580265141895	2301
5	6886	579.580265141895	2302
5	6886	579.580265141895	2303
5	6886	579.580265141895	2304
5	6893	579.609104982664	2305
5	6893	579.609104982664	2306
5	6893	579.609104982664	2307
5	6893	579.609104982664	2308
5	6893	579.609104982664	2309
5	6926	581.580265141895	2310
5	6926	581.580265141895	2311
5	6926	581.580265141895	2312
5	6926	581.580265141895	2313
5	6937	583.580265141895	2314
5	6937	583.580265141895	2315
5	6937	583.580265141895	2316
5	6937	583.580265141895	2317
5	6946	584.080265141895	2318
5	6946	584.080265141895	2319
5	6946	584.080265141895	2320
5	6946	584.080265141895	2321
5	6950	584.109104982664	2322
5	6950	584.109104982664	2323
5	6950	584.109104982664	2324
5	6950	584.109104982664	2325
5	6950	584.109104982664	2326
5	6978	585.580265141895	2327
5	6978	585.580265141895	2328
5	6978	585.580265141895	2329
5	6978	585.580265141895	2330
5	6989	587.580265141895	2331
5	6989	587.580265141895	2332
5	6989	587.580265141895	2333
5	6989	587.580265141895	2334
5	6998	588.580265141895	2335
5	6998	588.580265141895	2336
5	6998	588.580265141895	2337
5	6998	588.580265141895	2338
5	7002	588.609104982664	2339
5	7002	588.609104982664	2340
5	7002	588.609104982664	2341
5	7002	588.609104982664	2342
5	7002	588.609104982664	2343
5	7027	589.580265141895	2344
5	7027	589.580265141895	2345
5	7027	589.580265141895	2346
5	7027	589.580265141895	2347
5	7039	591.580265141895	2348
5	7039	591.580265141895	2349
5	7039	591.580265141895	2350
5	7039	591.580265141895	2351
5	7050	593.080265141895	2352
5	7050	593.080265141895	2353
5	7050	593.080265141895	2354
5	7050	593.080265141895	2355
5	7054	593.109104982664	2356
5	7054	593.109104982664	2357
5	7054	593.109104982664	2358
5	7054	593.109104982664	2359
5	7054	593.109104982664	2360
5	7073	593.580265141895	2361
5	7073	593.580265141895	2362
5	7073	593.580265141895	2363
5	7073	593.580265141895	2364
5	7091	595.580265141895	2365
5	7091	595.580265141895	2366
5	7091	595.580265141895	2367
5	7091	595.580265141895	2368
5	7102	597.580265141895	2369
5	7102	597.580265141895	2370
5	7102	597.580265141895	2371
5	7102	597.580265141895	2372
5	7103	597.580265141895	2373
5	7103	597.580265141895	2374
5	7103	597.580265141895	2375
5	7103	597.580265141895	2376
5	7110	597.609104982664	2377
5	7110	597.609104982664	2378
5	7110	597.609104982664	2379
5	7110	597.609104982664	2380
5	7110	597.609104982664	2381
5	7140	599.580265141895	2382
5	7140	599.580265141895	2383
5	7140	599.580265141895	2384
5	7140	599.580265141895	2385
5	7152	601.580265141895	2386
5	7152	601.580265141895	2387
5	7152	601.580265141895	2388
5	7152	601.580265141895	2389
5	7163	602.080265141895	2390
5	7163	602.080265141895	2391
5	7163	602.080265141895	2392
5	7163	602.080265141895	2393
5	7167	602.109104982664	2394
5	7167	602.109104982664	2395
5	7167	602.109104982664	2396
5	7167	602.109104982664	2397
5	7167	602.109104982664	2398
5	7192	603.580265141895	2399
5	7192	603.580265141895	2400
5	7192	603.580265141895	2401
5	7192	603.580265141895	2402
5	7204	605.580265141895	2403
5	7204	605.580265141895	2404
5	7204	605.580265141895	2405
5	7204	605.580265141895	2406
5	7213	606.580265141895	2407
5	7213	606.580265141895	2408
5	7213	606.580265141895	2409
5	7213	606.580265141895	2410
5	7217	606.609104982664	2411
5	7217	606.609104982664	2412
5	7217	606.609104982664	2413
5	7217	606.609104982664	2414
5	7217	606.609104982664	2415
5	7244	607.580265141895	2416
5	7244	607.580265141895	2417
5	7244	607.580265141895	2418
5	7244	607.580265141895	2419
5	7253	609.580265141895	2420
5	7253	609.580265141895	2421
5	7253	609.580265141895	2422
5	7253	609.580265141895	2423
5	7265	611.080265141895	2424
5	7265	611.080265141895	2425
5	7265	611.080265141895	2426
5	7265	611.080265141895	2427
5	7269	611.109104982664	2428
5	7269	611.109104982664	2429
5	7269	611.109104982664	2430
5	7269	611.109104982664	2431
5	7269	611.109104982664	2432
5	7288	611.580265141895	2433
5	7288	611.580265141895	2434
5	7288	611.580265141895	2435
5	7288	611.580265141895	2436
5	7305	613.580265141895	2437
5	7305	613.580265141895	2438
5	7305	613.580265141895	2439
5	7305	613.580265141895	2440
5	7317	615.580265141895	2441
5	7317	615.580265141895	2442
5	7317	615.580265141895	2443
5	7317	615.580265141895	2444
5	7318	615.580265141895	2445
5	7318	615.580265141895	2446
5	7318	615.580265141895	2447
5	7318	615.580265141895	2448
5	7325	615.609104982664	2449
5	7325	615.609104982664	2450
5	7325	615.609104982664	2451
5	7325	615.609104982664	2452
5	7325	615.609104982664	2453
5	7357	617.580265141895	2454
5	7357	617.580265141895	2455
5	7357	617.580265141895	2456
5	7357	617.580265141895	2457
5	7366	619.580265141895	2458
5	7366	619.580265141895	2459
5	7366	619.580265141895	2460
5	7366	619.580265141895	2461
5	7378	620.080265141895	2462
5	7378	620.080265141895	2463
5	7378	620.080265141895	2464
5	7378	620.080265141895	2465
5	7382	620.109104982664	2466
5	7382	620.109104982664	2467
5	7382	620.109104982664	2468
5	7382	620.109104982664	2469
5	7382	620.109104982664	2470
5	7407	621.580265141895	2471
5	7407	621.580265141895	2472
5	7407	621.580265141895	2473
5	7407	621.580265141895	2474
5	7418	623.580265141895	2475
5	7418	623.580265141895	2476
5	7418	623.580265141895	2477
5	7418	623.580265141895	2478
5	7427	624.580265141895	2479
5	7427	624.580265141895	2480
5	7427	624.580265141895	2481
5	7427	624.580265141895	2482
5	7431	624.609104982664	2483
5	7431	624.609104982664	2484
5	7431	624.609104982664	2485
5	7431	624.609104982664	2486
5	7431	624.609104982664	2487
5	7459	625.580265141895	2488
5	7459	625.580265141895	2489
5	7459	625.580265141895	2490
5	7459	625.580265141895	2491
5	7470	627.580265141895	2492
5	7470	627.580265141895	2493
5	7470	627.580265141895	2494
5	7470	627.580265141895	2495
5	7480	629.080265141895	2496
5	7480	629.080265141895	2497
5	7480	629.080265141895	2498
5	7480	629.080265141895	2499
5	7484	629.109104982664	2500
5	7484	629.109104982664	2501
5	7484	629.109104982664	2502
5	7484	629.109104982664	2503
5	7484	629.109104982664	2504
5	7502	629.580265141895	2505
5	7502	629.580265141895	2506
5	7502	629.580265141895	2507
5	7502	629.580265141895	2508
5	7521	631.580265141895	2509
5	7521	631.580265141895	2510
5	7521	631.580265141895	2511
5	7521	631.580265141895	2512
5	7532	633.580265141895	2513
5	7532	633.580265141895	2514
5	7532	633.580265141895	2515
5	7532	633.580265141895	2516
5	7533	633.580265141895	2517
5	7533	633.580265141895	2518
5	7533	633.580265141895	2519
5	7533	633.580265141895	2520
5	7540	633.609104982664	2521
5	7540	633.609104982664	2522
5	7540	633.609104982664	2523
5	7540	633.609104982664	2524
5	7540	633.609104982664	2525
5	7573	635.580265141895	2526
5	7573	635.580265141895	2527
5	7573	635.580265141895	2528
5	7573	635.580265141895	2529
5	7583	637.580265141895	2530
5	7583	637.580265141895	2531
5	7583	637.580265141895	2532
5	7583	637.580265141895	2533
5	7593	638.080265141895	2534
5	7593	638.080265141895	2535
5	7593	638.080265141895	2536
5	7593	638.080265141895	2537
5	7597	638.109104982664	2538
5	7597	638.109104982664	2539
5	7597	638.109104982664	2540
5	7597	638.109104982664	2541
5	7597	638.109104982664	2542
5	7622	639.580265141895	2543
5	7622	639.580265141895	2544
5	7622	639.580265141895	2545
5	7622	639.580265141895	2546
5	7634	641.580265141895	2547
5	7634	641.580265141895	2548
5	7634	641.580265141895	2549
5	7634	641.580265141895	2550
5	7644	642.580265141895	2551
5	7644	642.580265141895	2552
5	7644	642.580265141895	2553
5	7644	642.580265141895	2554
5	7650	642.704469950436	2555
5	7650	642.704469950436	2556
5	7650	642.704469950436	2557
5	7650	642.704469950436	2558
5	7650	642.704469950436	2559
5	7674	643.580265141895	2560
5	7674	643.580265141895	2561
5	7674	643.580265141895	2562
5	7674	643.580265141895	2563
5	7687	645.580265141895	2564
5	7687	645.580265141895	2565
5	7687	645.580265141895	2566
5	7687	645.580265141895	2567
5	7696	647.080265141895	2568
5	7696	647.080265141895	2569
5	7696	647.080265141895	2570
5	7696	647.080265141895	2571
5	7700	647.109104982664	2572
5	7700	647.109104982664	2573
5	7700	647.109104982664	2574
5	7700	647.109104982664	2575
5	7700	647.109104982664	2576
5	7719	647.580265141895	2577
5	7719	647.580265141895	2578
5	7719	647.580265141895	2579
5	7719	647.580265141895	2580
5	7735	649.580265141895	2581
5	7735	649.580265141895	2582
5	7735	649.580265141895	2583
5	7735	649.580265141895	2584
5	7748	651.580265141895	2585
5	7748	651.580265141895	2586
5	7748	651.580265141895	2587
5	7748	651.580265141895	2588
5	7749	651.580265141895	2589
5	7749	651.580265141895	2590
5	7749	651.580265141895	2591
5	7749	651.580265141895	2592
5	7756	651.609104982664	2593
5	7756	651.609104982664	2594
5	7756	651.609104982664	2595
5	7756	651.609104982664	2596
5	7756	651.609104982664	2597
5	7787	653.580265141895	2598
5	7787	653.580265141895	2599
5	7787	653.580265141895	2600
5	7787	653.580265141895	2601
5	7799	655.580265141895	2602
5	7799	655.580265141895	2603
5	7799	655.580265141895	2604
5	7799	655.580265141895	2605
5	7809	656.080265141895	2606
5	7809	656.080265141895	2607
5	7809	656.080265141895	2608
5	7809	656.080265141895	2609
5	7813	656.109104982664	2610
5	7813	656.109104982664	2611
5	7813	656.109104982664	2612
5	7813	656.109104982664	2613
5	7813	656.109104982664	2614
[...]
34	22639	1898.586007462901	514
34	22670	1900.086007462901	515
34	22682	1902.086007462901	516
34	22691	1903.086007462901	517
34	22721	1904.086007462901	518
34	22732	1906.086007462901	519
34	22743	1907.586007462901	520
34	22768	1908.086007462901	521
34	22783	1910.086007462901	522
34	22797	1912.086007462901	523
34	22798	1912.086007462901	524
34	22834	1914.086007462901	525
34	22845	1916.086007462901	526
34	22854	1916.586007462901	527
34	22885	1918.086007462901	528
34	22896	1920.086007462901	529
34	22906	1921.086007462901	530
34	22937	1922.086007462901	531
34	22947	1924.086007462901	532
34	22957	1925.586007462901	533
34	22983	1926.086007462901	534
34	22998	1928.086007462901	535
34	23011	1930.086007462901	536
34	23012	1930.086007462901	537
34	23050	1932.086007462901	538
34	23060	1934.086007462901	539
34	23069	1934.586007462901	540
34	23100	1936.086007462901	541
34	23111	1938.086007462901	542
34	23121	1939.086007462901	543
34	23151	1940.086007462901	544
34	23163	1942.086007462901	545
34	23172	1943.586007462901	546
34	23198	1944.086007462901	547
34	23213	1946.086007462901	548
34	23226	1948.086007462901	549
34	23227	1948.086007462901	550
34	23264	1950.086007462901	551
34	23276	1952.086007462901	552
34	23285	1952.586007462901	553
34	23315	1954.086007462901	554
34	23326	1956.086007462901	555
34	23337	1957.086007462901	556
34	23366	1958.086007462901	557
34	23377	1960.086007462901	558
34	23387	1961.586007462901	559
34	23414	1962.086007462901	560
34	23428	1964.086007462901	561
34	23441	1966.086007462901	562
34	23442	1966.086007462901	563
34	23479	1968.086007462901	564
34	23490	1970.086007462901	565
34	23499	1970.586007462901	566
34	23531	1972.086007462901	567
34	23541	1974.086007462901	568
34	23551	1975.086007462901	569
34	23581	1976.086007462901	570
34	23592	1978.086007462901	571
34	23602	1979.586007462901	572
34	23628	1980.086007462901	573
34	23644	1982.086007462901	574
34	23656	1984.086007462901	575
34	23657	1984.086007462901	576
34	23694	1986.086007462901	577
34	23705	1988.086007462901	578
34	23714	1988.586007462901	579
34	23745	1990.086007462901	580
34	23757	1992.086007462901	581
34	23766	1993.086007462901	582
34	23796	1994.086007462901	583
34	23807	1996.086007462901	584
34	23818	1997.586007462901	585
34	23843	1998.086007462901	586
34	23858	2000.086007462901	587
34	23872	2002.086007462901	588
34	23873	2002.086007462901	589
34	23909	2004.086007462901	590
34	23920	2006.086007462901	591
34	23929	2006.586007462901	592
34	23960	2008.086007462901	593
34	23971	2010.086007462901	594
34	23981	2011.086007462901	595
34	24012	2012.086007462901	596
34	24022	2014.086007462901	597
34	24032	2015.586007462901	598
34	24058	2016.086007462901	599
34	24073	2018.086007462901	600
34	24086	2020.086007462901	601
34	24087	2020.086007462901	602
34	24125	2022.086007462901	603
34	24135	2024.086007462901	604
34	24144	2024.586007462901	605
34	24175	2026.086007462901	606
34	24186	2028.086007462901	607
34	24196	2029.086007462901	608
34	24226	2030.086007462901	609
34	24238	2032.086007462901	610
34	24247	2033.586007462901	611
34	24273	2034.086007462901	612
34	24288	2036.086007462901	613
34	24301	2038.086007462901	614
34	24302	2038.086007462901	615
34	26462	2220.267379893574	616
34	26502	2222.267379893574	617
34	26515	2224.267379893574	618
34	26526	2224.767379893574	619
34	26556	2226.267379893574	620
34	26569	2228.267379893574	621
34	26579	2229.267379893574	622
34	26608	2230.267379893574	623
34	26621	2232.267379893574	624
34	26631	2233.767379893574	625
34	26656	2234.267379893574	626
34	26669	2236.267379893574	627
34	26684	2238.267379893574	628
34	26685	2238.267379893574	629
34	26722	2240.267379893574	630
34	26735	2242.267379893574	631
34	26743	2242.767379893574	632
34	26774	2244.267379893574	633
34	26784	2246.267379893574	634
34	26796	2247.267379893574	635
34	26826	2248.267379893574	636
34	26836	2250.267379893574	637
34	26846	2251.767379893574	638
34	26869	2252.267379893574	639
34	26888	2254.267379893574	640
34	26901	2256.267379893574	641
34	26902	2256.267379893574	642
34	26940	2258.267379893574	643
34	26950	2260.267379893574	644
34	26958	2260.767379893574	645
34	26991	2262.267379893574	646
34	27002	2264.267379893574	647
34	27011	2265.267379893574	648
34	27041	2266.267379893574	649
34	27053	2268.267379893574	650
34	27062	2269.767379893574	651
34	27087	2270.267379893574	652
34	27104	2272.267379893574	653
34	27116	2274.267379893574	654
34	27117	2274.267379893574	655
34	27153	2276.267379893574	656
34	27166	2278.267379893574	657
34	27175	2278.767379893574	658
34	27204	2280.267379893574	659
34	27217	2282.267379893574	660
34	27227	2283.267379893574	661
34	27256	2284.267379893574	662
34	27266	2286.267379893574	663
34	27278	2287.767379893574	664
34	27304	2288.267379893574	665
34	27317	2290.267379893574	666
34	27332	2292.267379893574	667
34	27333	2292.267379893574	668
34	27369	2294.267379893574	669
34	27379	2296.267379893574	670
34	27388	2296.767379893574	671
34	27421	2298.267379893574	672
34	27430	2300.267379893574	673
34	27440	2301.267379893574	674
34	27472	2302.267379893574	675
34	27482	2304.267379893574	676
34	27491	2305.767379893574	677
34	27517	2306.267379893574	678
34	27534	2308.267379893574	679
34	27545	2310.267379893574	680
34	27546	2310.267379893574	681
34	27585	2312.267379893574	682
34	27595	2314.267379893574	683
34	27604	2314.767379893574	684
34	27634	2316.267379893574	685
34	27647	2318.267379893574	686
34	27656	2319.267379893574	687
34	27685	2320.267379893574	688
34	27698	2322.267379893574	689
34	27708	2323.767379893574	690
34	27733	2324.267379893574	691
34	27747	2326.267379893574	692
34	27762	2328.267379893574	693
34	27763	2328.267379893574	694
34	27798	2330.267379893574	695
34	27811	2332.267379893574	696
34	27820	2332.767379893574	697
34	27850	2334.267379893574	698
34	27860	2336.267379893574	699
34	27872	2337.267379893574	700
34	27902	2338.267379893574	701
34	27911	2340.267379893574	702
34	27921	2341.767379893574	703
34	27949	2342.267379893574	704
34	27963	2344.267379893574	705
34	27975	2346.267379893574	706
34	27976	2346.267379893574	707
34	28015	2348.267379893574	708
34	28024	2350.267379893574	709
34	28033	2350.767379893574	710
34	28066	2352.267379893574	711
34	28076	2354.267379893574	712
34	28085	2355.267379893574	713
34	28115	2356.267379893574	714
34	28128	2358.267379893574	715
34	28137	2359.767379893574	716
34	28162	2360.267379893574	717
34	28179	2362.267379893574	718
34	28191	2364.267379893574	719
34	28192	2364.267379893574	720
34	28228	2366.267379893574	721
34	28241	2368.267379893574	722
34	28250	2368.767379893574	723
34	28279	2370.267379893574	724
34	28292	2372.267379893574	725
34	28302	2373.267379893574	726
34	28331	2374.267379893574	727
34	28341	2376.267379893574	728
34	28353	2377.767379893574	729
34	28379	2378.267379893574	730
34	28392	2380.267379893574	731
34	28407	2382.267379893574	732
34	28408	2382.267379893574	733
34	28444	2384.267379893574	734
34	28454	2386.267379893574	735
34	28463	2386.767379893574	736
34	28496	2388.267379893574	737
34	28505	2390.267379893574	738
34	28515	2391.267379893574	739
34	28547	2392.267379893574	740
34	28557	2394.267379893574	741
34	28566	2395.767379893574	742
34	28592	2396.267379893574	743
34	28609	2398.267379893574	744
34	28620	2400.267379893574	745
34	28621	2400.267379893574	746
34	28660	2402.267379893574	747
34	28670	2404.267379893574	748
34	28679	2404.767379893574	749
34	28709	2406.267379893574	750
34	28722	2408.267379893574	751
34	28731	2409.267379893574	752
34	28760	2410.267379893574	753
34	28773	2412.267379893574	754
34	28783	2413.767379893574	755
34	28808	2414.267379893574	756
34	28822	2416.267379893574	757
34	28837	2418.267379893574	758
34	28838	2418.267379893574	759
34	28873	2420.267379893574	760
34	28886	2422.267379893574	761
34	28895	2422.767379893574	762
34	28925	2424.267379893574	763
34	28935	2426.267379893574	764
34	28947	2427.267379893574	765
34	28977	2428.267379893574	766
34	28986	2430.267379893574	767
34	28996	2431.767379893574	768
34	29024	2432.267379893574	769
34	29038	2434.267379893574	770
34	29050	2436.267379893574	771
34	29051	2436.267379893574	772
34	29090	2438.267379893574	773
34	29099	2440.267379893574	774
34	29108	2440.767379893574	775
34	29141	2442.267379893574	776
34	29151	2444.267379893574	777
34	29160	2445.267379893574	778
34	29190	2446.267379893574	779
34	29203	2448.267379893574	780
34	29212	2449.767379893574	781
34	29237	2450.267379893574	782
34	29254	2452.267379893574	783
34	29266	2454.267379893574	784
34	29267	2454.267379893574	785
34	29303	2456.267379893574	786
34	29316	2458.267379893574	787
34	29325	2458.767379893574	788
34	29354	2460.267379893574	789
34	29367	2462.267379893574	790
34	29377	2463.267379893574	791
34	29406	2464.267379893574	792
34	29416	2466.267379893574	793
34	29428	2467.767379893574	794
34	29454	2468.267379893574	795
34	29467	2470.267379893574	796
34	29482	2472.267379893574	797
34	29483	2472.267379893574	798
34	29519	2474.267379893574	799
34	29529	2476.267379893574	800
34	29538	2476.767379893574	801
34	29571	2478.267379893574	802
34	29580	2480.267379893574	803
34	29590	2481.267379893574	804
34	29622	2482.267379893574	805
34	29632	2484.267379893574	806
34	29641	2485.767379893574	807
34	29667	2486.267379893574	808
34	29684	2488.267379893574	809
34	29695	2490.267379893574	810
34	29696	2490.267379893574	811
34	29735	2492.267379893574	812
34	29745	2494.267379893574	813
34	29754	2494.767379893574	814
34	29784	2496.267379893574	815
34	29797	2498.267379893574	816
34	29806	2499.267379893574	817
34	29835	2500.267379893574	818
34	29848	2502.267379893574	819
34	29858	2503.767379893574	820
34	29883	2504.267379893574	821
34	29897	2506.267379893574	822
34	29912	2508.267379893574	823
34	29913	2508.267379893574	824
34	29948	2510.267379893574	825
34	29961	2512.267379893574	826
34	29970	2512.767379893574	827
34	30000	2514.267379893574	828
34	30010	2516.267379893574	829
34	30022	2517.267379893574	830
34	30052	2518.267379893574	831
34	30061	2520.267379893574	832
34	30071	2521.767379893574	833
34	30099	2522.267379893574	834
34	30113	2524.267379893574	835
34	30125	2526.267379893574	836
34	30126	2526.267379893574	837
34	30165	2528.267379893574	838
34	30174	2530.267379893574	839
34	30183	2530.767379893574	840
34	30216	2532.267379893574	841
34	30226	2534.267379893574	842
34	30235	2535.267379893574	843
34	30265	2536.267379893574	844
34	30278	2538.267379893574	845
34	30287	2539.767379893574	846
34	30312	2540.267379893574	847
34	30329	2542.267379893574	848
34	30341	2544.267379893574	849
34	30342	2544.267379893574	850
34	30378	2546.267379893574	851
34	30391	2548.267379893574	852
34	30400	2548.767379893574	853
34	30429	2550.267379893574	854
34	30442	2552.267379893574	855
34	30452	2553.267379893574	856
34	30481	2554.267379893574	857
34	30491	2556.267379893574	858
34	30503	2557.767379893574	859
34	30529	2558.267379893574	860
34	30542	2560.267379893574	861
34	30557	2562.267379893574	862
34	30558	2562.267379893574	863
34	30594	2564.267379893574	864
34	30604	2566.267379893574	865
34	30613	2566.767379893574	866
34	30646	2568.267379893574	867
34	30655	2570.267379893574	868
34	30665	2571.267379893574	869
34	30697	2572.267379893574	870
34	30707	2574.267379893574	871
34	30716	2575.767379893574	872
34	30742	2576.267379893574	873
34	30759	2578.267379893574	874
34	30770	2580.267379893574	875
34	30771	2580.267379893574	876
34	30810	2582.267379893574	877
34	30820	2584.267379893574	878
34	30829	2584.767379893574	879
34	30859	2586.267379893574	880
34	30872	2588.267379893574	881
34	30881	2589.267379893574	882
34	30910	2590.267379893574	883
34	30923	2592.267379893574	884
34	30933	2593.767379893574	885
34	30958	2594.267379893574	886
34	30972	2596.267379893574	887
34	31406	2632.267379893574	888
34	31417	2634.267379893574	889
34	31418	2634.267379893574	890
34	31455	2636.267379893574	891
34	31467	2638.267379893574	892
34	31476	2638.767379893574	893
34	31505	2640.267379893574	894
34	31519	2642.267379893574	895
34	31528	2643.267379893574	896
34	31557	2644.267379893574	897
34	31568	2646.267379893574	898
34	31580	2647.767379893574	899
34	31605	2648.267379893574	900
34	31618	2650.267379893574	901
34	31634	2652.267379893574	902
34	31635	2652.267379893574	903
34	31670	2654.267379893574	904
34	31681	2656.267379893574	905
34	31690	2656.767379893574	906
34	31722	2658.267379893574	907
34	31731	2660.267379893574	908
34	31742	2661.267379893574	909
34	31774	2662.267379893574	910
34	31783	2664.267379893574	911
34	31792	2665.767379893574	912
34	31819	2666.267379893574	913
34	31835	2668.267379893574	914
34	31846	2670.267379893574	915
34	31847	2670.267379893574	916
34	31887	2672.267379893574	917
34	31896	2674.267379893574	918
34	31905	2674.767379893574	919
34	31936	2676.267379893574	920
34	31948	2678.267379893574	921
34	31957	2679.267379893574	922
34	31986	2680.267379893574	923
34	32000	2682.267379893574	924
34	32009	2683.767379893574	925
34	32034	2684.267379893574	926
34	32049	2686.267379893574	927
34	32063	2688.267379893574	928
34	32064	2688.267379893574	929
34	32099	2690.267379893574	930
34	32113	2692.267379893574	931
34	32122	2692.767379893574	932
34	32151	2694.267379893574	933
34	32162	2696.267379893574	934
34	32174	2697.267379893574	935
34	32203	2698.267379893574	936
34	32212	2700.267379893574	937
34	32223	2701.767379893574	938
34	32251	2702.267379893574	939
34	32264	2704.267379893574	940
34	32277	2706.267379893574	941
34	32278	2706.267379893574	942
34	32316	2708.267379893574	943
34	32325	2710.267379893574	944
34	32334	2710.767379893574	945
34	32368	2712.267379893574	946
34	32377	2714.267379893574	947
34	32386	2715.267379893574	948
34	32417	2716.267379893574	949
34	32429	2718.267379893574	950
34	32438	2719.767379893574	951
34	32463	2720.267379893574	952
34	32481	2722.267379893574	953
34	32492	2724.267379893574	954
34	32493	2724.267379893574	955
34	32530	2726.267379893574	956
34	32542	2728.267379893574	957
34	32551	2728.767379893574	958
34	32580	2730.267379893574	959
34	32594	2732.267379893574	960
34	32603	2733.267379893574	961
34	32632	2734.267379893574	962
34	32643	2736.267379893574	963
34	32655	2737.767379893574	964
34	32680	2738.267379893574	965
34	32693	2740.267379893574	966
34	32709	2742.267379893574	967
34	32710	2742.267379893574	968
34	32745	2744.267379893574	969
34	32756	2746.267379893574	970
34	32765	2746.767379893574	971
34	32797	2748.267379893574	972
34	32806	2750.267379893574	973
34	32817	2751.267379893574	974
34	32849	2752.267379893574	975
34	32858	2754.267379893574	976
34	32867	2755.767379893574	977
34	32894	2756.267379893574	978
34	32910	2758.267379893574	979
34	32921	2760.267379893574	980
34	32922	2760.267379893574	981
34	32962	2762.267379893574	982
34	32971	2764.267379893574	983
34	32980	2764.767379893574	984
34	33011	2766.267379893574	985
34	33023	2768.267379893574	986
34	33032	2769.267379893574	987
34	33061	2770.267379893574	988
34	33075	2772.267379893574	989
34	33084	2773.767379893574	990
34	33109	2774.267379893574	991
34	33124	2776.267379893574	992
34	33138	2778.267379893574	993
34	33139	2778.267379893574	994
34	33174	2780.267379893574	995
34	33188	2782.267379893574	996
34	33197	2782.767379893574	997
34	33226	2784.267379893574	998
34	33237	2786.267379893574	999
34	33249	2787.267379893574	1000
34	33278	2788.267379893574	1001
34	33287	2790.267379893574	1002
34	33298	2791.767379893574	1003
34	33326	2792.267379893574	1004
34	33339	2794.267379893574	1005
34	33352	2796.267379893574	1006
34	33353	2796.267379893574	1007
34	33391	2798.267379893574	1008
34	33400	2800.267379893574	1009
34	33409	2800.767379893574	1010
34	33443	2802.267379893574	1011
34	33452	2804.267379893574	1012
34	33461	2805.267379893574	1013
34	33492	2806.267379893574	1014
34	33504	2808.267379893574	1015
34	33513	2809.767379893574	1016
34	33538	2810.267379893574	1017
34	33556	2812.267379893574	1018
34	33567	2814.267379893574	1019
34	33568	2814.267379893574	1020
34	33605	2816.267379893574	1021
34	33619	2818.267379893574	1022
34	33626	2818.767379893574	1023
34	33656	2820.267379893574	1024
34	33669	2822.267379893574	1025
34	33678	2823.267379893574	1026
34	33708	2824.267379893574	1027
34	33720	2826.267379893574	1028
34	33730	2827.767379893574	1029
34	33755	2828.267379893574	1030
34	33770	2830.267379893574	1031
34	33785	2832.267379893574	1032
34	33786	2832.267379893574	1033
34	33822	2834.267379893574	1034
34	33833	2836.267379893574	1035
34	33842	2836.767379893574	1036
34	33872	2838.267379893574	1037
34	33883	2840.267379893574	1038
34	33894	2841.267379893574	1039
34	33924	2842.267379893574	1040
34	33934	2844.267379893574	1041
34	33944	2845.767379893574	1042
34	33971	2846.267379893574	1043
34	33985	2848.267379893574	1044
34	33998	2850.267379893574	1045
34	33999	2850.267379893574	1046
34	34037	2852.267379893574	1047
34	34047	2854.267379893574	1048
34	34056	2854.767379893574	1049
34	34088	2856.267379893574	1050
34	34098	2858.267379893574	1051
34	34108	2859.267379893574	1052
34	34138	2860.267379893574	1053
34	34150	2862.267379893574	1054
34	34159	2863.767379893574	1055
34	34185	2864.267379893574	1056
34	34201	2866.267379893574	1057
34	34213	2868.267379893574	1058
34	34214	2868.267379893574	1059
34	34251	2870.267379893574	1060
34	34263	2872.267379893574	1061
34	34272	2872.767379893574	1062
34	34302	2874.267379893574	1063
34	34314	2876.267379893574	1064
34	34324	2877.267379893574	1065
34	34353	2878.267379893574	1066
34	34364	2880.267379893574	1067
34	34375	2881.767379893574	1068
34	34401	2882.267379893574	1069
34	34415	2884.267379893574	1070
34	34429	2886.267379893574	1071
34	34430	2886.267379893574	1072
34	34466	2888.267379893574	1073
34	34477	2890.267379893574	1074
34	34486	2890.767379893574	1075
34	34518	2892.267379893574	1076
34	34528	2894.267379893574	1077
34	34538	2895.267379893574	1078
34	34569	2896.267379893574	1079
34	34579	2898.267379893574	1080
34	34589	2899.767379893574	1081
34	34615	2900.267379893574	1082
34	34631	2902.267379893574	1083
34	34643	2904.267379893574	1084
34	34644	2904.267379893574	1085
34	34682	2906.267379893574	1086
34	34692	2908.267379893574	1087
34	34701	2908.767379893574	1088
34	34732	2910.267379893574	1089
34	34744	2912.267379893574	1090
34	34753	2913.267379893574	1091
34	34783	2914.267379893574	1092
34	34795	2916.267379893574	1093
34	34805	2917.767379893574	1094
34	34830	2918.267379893574	1095
34	34845	2920.267379893574	1096
34	34859	2922.267379893574	1097
34	34860	2922.267379893574	1098
34	34896	2924.267379893574	1099
34	34908	2926.267379893574	1100
34	34917	2926.767379893574	1101
34	34947	2928.267379893574	1102
34	34958	2930.267379893574	1103
34	34969	2931.267379893574	1104
34	34999	2932.267379893574	1105
34	35009	2934.267379893574	1106
34	35019	2935.767379893574	1107
34	35046	2936.267379893574	1108
34	35060	2938.267379893574	1109
34	35073	2940.267379893574	1110
34	35074	2940.267379893574	1111
34	35112	2942.267379893574	1112
34	35122	2944.267379893574	1113
34	35131	2944.767379893574	1114
34	35163	2946.267379893574	1115
34	35174	2948.267379893574	1116
34	35184	2949.267379893574	1117
34	35214	2950.267379893574	1118
34	35226	2952.267379893574	1119
34	35235	2953.767379893574	1120
34	35261	2954.267379893574	1121
34	35276	2956.267379893574	1122
34	35289	2958.267379893574	1123
34	35290	2958.267379893574	1124
34	35327	2960.267379893574	1125
34	35338	2962.267379893574	1126
34	35347	2962.767379893574	1127
34	35378	2964.267379893574	1128
34	35389	2966.267379893574	1129
34	35399	2967.267379893574	1130
34	35429	2968.267379893574	1131
34	35441	2970.267379893574	1132
34	35451	2971.767379893574	1133
34	35477	2972.267379893574	1134
34	35492	2974.267379893574	1135
34	35506	2976.267379893574	1136
34	35507	2976.267379893574	1137
34	35543	2978.267379893574	1138
34	35554	2980.267379893574	1139
34	35563	2980.767379893574	1140
34	35594	2982.267379893574	1141
34	35605	2984.267379893574	1142
34	35615	2985.267379893574	1143
34	35645	2986.267379893574	1144
34	35656	2988.267379893574	1145
34	35666	2989.767379893574	1146
34	35692	2990.267379893574	1147
34	35707	2992.267379893574	1148
34	35720	2994.267379893574	1149
34	35721	2994.267379893574	1150
34	35758	2996.267379893574	1151
34	35769	2998.267379893574	1152
34	35778	2998.767379893574	1153

