version 2
run StaticNetwork-9-20220401-09:20:48-19420
attr configname StaticNetwork
attr datetime 20220401-09:20:48
attr experiment StaticNetwork
attr inifile omnetpp.ini
attr iterationvars "$0=5, $1=5, $2=normal(7.0s, 1.5s), $3=uniform(0.1s, 0.3s), $4=normal(5.0s, 1s), $5=2s, $6=4.5s, $7=5s, $8=1s, $9=1, $10=7, $11=0"
attr iterationvarsf 5,5,normal(7.0s,_1.5s),uniform(0.1s,_0.3s),normal(5.0s,_1s),2s,4.5s,5s,1s,1,7,0-
attr measurement "$0=5, $1=5, $2=normal(7.0s, 1.5s), $3=uniform(0.1s, 0.3s), $4=normal(5.0s, 1s), $5=2s, $6=4.5s, $7=5s, $8=1s, $9=1, $10=7, $11=0"
attr network RAFT_Network
attr processid 19420
attr repetition 1
attr replication #1
attr resultdir results
attr runnumber 9
attr seedset 9
param **.servers_number 5
param **.clients_number 5
param **.client[*].requestMsgTimeout "normal(7.0s, 1.5s)"
param **.cloud.propDelay "uniform(0.1s, 0.3s)"
param **.server[*].electionTimeout "normal(5.0s, 1s)"
param **.server[*].heartbeatTimeout 2s
param **.server[*].appendEntriesTimeout 4.5s
param **.server[*].checkFailureTimeout 5s
param **.server[*].checkRecoveryTimeout 1s
param **.failureProbability 1
param **.recoveryProbability 7
param **.messageLossProbability 0

vector 0 RAFT_Network.server[0] serverState ETV
vector 1 RAFT_Network.server[1] serverState ETV
vector 2 RAFT_Network.server[2] serverState ETV
vector 3 RAFT_Network.server[3] serverState ETV
vector 4 RAFT_Network.server[4] serverState ETV
vector 5 RAFT_Network.server[1] totMsgSent ETV
vector 6 RAFT_Network.server[1] totRequestVoteMsgSent ETV
vector 7 RAFT_Network.server[3] totMsgReceived ETV
vector 8 RAFT_Network.server[3] totMsgSent ETV
vector 9 RAFT_Network.server[3] totReplyToClientRequestMsgSent ETV
vector 10 RAFT_Network.server[4] totMsgReceived ETV
vector 11 RAFT_Network.server[4] totMsgSent ETV
vector 12 RAFT_Network.server[4] totReplyToClientRequestMsgSent ETV
vector 13 RAFT_Network.server[2] totMsgReceived ETV
vector 14 RAFT_Network.server[2] totMsgSent ETV
vector 15 RAFT_Network.server[2] totReplyToClientRequestMsgSent ETV
vector 16 RAFT_Network.server[1] totMsgReceived ETV
vector 17 RAFT_Network.server[0] electionsMeanTime ETV
vector 18 RAFT_Network.server[1] totAppendEntriesMsgSent ETV
vector 19 RAFT_Network.server[0] totMsgReceived ETV
vector 20 RAFT_Network.server[0] totMsgSent ETV
vector 21 RAFT_Network.server[0] totReplyToClientRequestMsgSent ETV
vector 22 RAFT_Network.server[3] totReplyToAppendEntriesMsgSent ETV
vector 23 RAFT_Network.server[4] totReplyToAppendEntriesMsgSent ETV
vector 24 RAFT_Network.server[2] totReplyToAppendEntriesMsgSent ETV
vector 25 RAFT_Network.server[0] totReplyToAppendEntriesMsgSent ETV
vector 26 RAFT_Network.server[1] totReplyToClientRequestMsgSent ETV
vector 27 RAFT_Network.client[2] responseTime ETV
vector 28 RAFT_Network.client[4] responseTime ETV
vector 29 RAFT_Network.client[3] responseTime ETV
vector 30 RAFT_Network.client[1] responseTime ETV
vector 31 RAFT_Network.client[0] responseTime ETV
vector 32 RAFT_Network.server[3] totRequestVoteMsgSent ETV
vector 33 RAFT_Network.server[3] totAppendEntriesMsgSent ETV
vector 34 RAFT_Network.server[1] totReplyToAppendEntriesMsgSent ETV
0	0	0	0
0	7	3.924838028771	0
0	7	3.924838028771	0
0	2665	225	0
0	2665	225	-1
0	2683	227	-1
0	2683	227	0
0	5372	454.714983008709	0
0	5372	454.714983008709	0
0	6077	512	0
0	6077	512	-1
0	6217	523	-1
0	6217	523	0
0	9250	778	0
0	9250	778	-1
0	9302	782	-1
0	9302	782	0
0	9528	802.919919733216	0
0	9528	802.919919733216	0
0	10354	873.710064713154	0
0	10354	873.710064713154	0
0	16545	1007.937355476018	0
0	16545	1007.937355476018	0
0	19881	1348.727500455956	0
0	19881	1348.727500455956	0
0	22209	1544.932437180463	0
0	22209	1544.932437180463	0
0	22535	1572	0
0	22535	1572	-1
0	22838	1596	-1
0	22838	1596	0
0	23008	1611	0
0	23008	1611	-1
0	23326	1637	-1
0	23326	1637	0
0	25303	1802	0
0	25303	1802	-1
0	25697	1835	-1
0	25697	1835	0
0	30305	2223.722582160401	0
0	30305	2223.722582160401	0
0	30578	2245.927518884908	0
0	30578	2245.927518884908	0
0	31597	2330	0
0	31597	2330	-1
0	31740	2341	-1
0	31740	2341	0
0	34714	2591	0
0	34714	2591	-1
0	34760	2594	-1
0	34760	2594	0
0	38100	2874	0
0	38100	2874	-1
0	38259	2887	-1
0	38259	2887	0
0	39606	3000	0
1	0	0	0
1	1	3.81942165816	0
1	1	3.81942165816	1
1	6	3.922399488789	1
1	6	3.922399488789	2
1	5354	450	2
1	5354	450	-1
1	5370	454	-1
1	5370	454	0
1	5375	454.827149670799	0
1	5375	454.827149670799	0
1	9522	802.814503362605	0
1	9522	802.814503362605	1
1	9527	802.917481193234	1
1	9527	802.917481193234	2
1	10329	869	2
1	10329	869	-1
1	10336	870	-1
1	10336	870	0
1	10357	873.81942165816	0
1	10357	873.81942165816	1
1	10372	873.943806619735	1
1	10372	873.943806619735	2
1	10381	874.012517447247	2
1	10381	874.012517447247	0
1	16539	1007.831939105407	0
1	16539	1007.831939105407	1
1	16544	1007.934916936036	1
1	16544	1007.934916936036	2
1	19861	1345	2
1	19861	1345	-1
1	20310	1384	-1
1	20310	1384	0
1	20320	1385.007599151692	0
1	20320	1385.007599151692	0
1	22203	1544.827020809852	0
1	22203	1544.827020809852	1
1	22208	1544.929998640481	1
1	22208	1544.929998640481	2
1	30273	2219	2
1	30273	2219	-1
1	30503	2238	-1
1	30503	2238	0
1	30504	2238.002680856137	0
1	30504	2238.002680856137	0
1	30572	2245.822102514297	0
1	30572	2245.822102514297	1
1	30577	2245.925080344926	1
1	30577	2245.925080344926	2
1	39606	3000	2
2	0	0	0
2	4	3.879879041536	0
2	4	3.879879041536	0
2	1821	155	0
2	1821	155	-1
2	1885	161	-1
2	1885	161	0
2	5373	454.752692769301	0
2	5373	454.752692769301	0
2	9525	802.874960745981	0
2	9525	802.874960745981	0
2	10355	873.747774473746	0
2	10355	873.747774473746	0
2	16542	1007.892396488783	0
2	16542	1007.892396488783	0
2	17507	1106	0
2	17507	1106	-1
2	17554	1110	-1
2	17554	1110	0
2	19882	1348.765210216548	0
2	19882	1348.765210216548	0
2	22206	1544.887478193228	0
2	22206	1544.887478193228	0
2	30306	2223.760291920993	0
2	30306	2223.760291920993	0
2	30575	2245.882559897673	0
2	30575	2245.882559897673	0
2	37397	2815	0
2	37397	2815	-1
2	37511	2825	-1
2	37511	2825	0
2	39606	3000	0
3	0	0	0
3	2	3.826697527675	0
3	2	3.826697527675	0
3	5371	454.713007055367	0
3	5371	454.713007055367	1
3	5378	454.880939089013	1
3	5378	454.880939089013	2
3	9516	800	2
3	9516	800	-1
3	9737	819	-1
3	9737	819	0
3	9744	820.924757062749	0
3	9744	820.924757062749	0
3	10353	873.708088759812	0
3	10353	873.708088759812	1
3	10366	873.898374831815	1
3	10366	873.898374831815	2
3	10373	873.95108248925	2
3	10373	873.95108248925	0
3	16487	1004	0
3	16487	1004	-1
3	16935	1047	-1
3	16935	1047	0
3	16937	1047.942192805551	0
3	16937	1047.942192805551	0
3	18022	1157	0
3	18022	1157	-1
3	18059	1161	-1
3	18059	1161	0
3	19880	1348.725524502614	0
3	19880	1348.725524502614	1
3	19887	1348.89345653626	1
3	19887	1348.89345653626	2
3	22188	1541	2
3	22188	1541	-1
3	22430	1563	-1
3	22430	1563	0
3	22460	1564.937274509996	0
3	22460	1564.937274509996	0
3	30304	2223.720606207059	0
3	30304	2223.720606207059	1
3	30314	2223.888538240705	1
3	30314	2223.888538240705	2
3	30566	2243	2
3	30566	2243	-1
3	30839	2266	-1
3	30839	2266	0
3	30845	2267.932356214441	0
3	30845	2267.932356214441	0
3	39606	3000	0
4	0	0	0
4	3	3.826731187564	0
4	3	3.826731187564	0
4	5377	454.856512199229	0
4	5377	454.856512199229	0
4	9524	802.821812892009	0
4	9524	802.821812892009	0
4	10360	873.826731187564	0
4	10360	873.826731187564	0
4	16541	1007.839248634811	0
4	16541	1007.839248634811	0
4	16625	1015	0
4	16625	1015	-1
4	16703	1023	-1
4	16703	1023	0
4	16941	1048	0
4	16941	1048	-1
4	16973	1052	-1
4	16973	1052	0
4	18870	1242	0
4	18870	1242	-1
4	19080	1264	-1
4	19080	1264	0
4	19885	1348.869029646476	0
4	19885	1348.869029646476	0
4	22205	1544.834330339256	0
4	22205	1544.834330339256	0
4	23592	1659	0
4	23592	1659	-1
4	23701	1668	-1
4	23701	1668	0
4	24408	1728	0
4	24408	1728	-1
4	24459	1732	-1
4	24459	1732	0
4	30313	2223.864111350921	0
4	30313	2223.864111350921	0
4	30574	2245.829412043701	0
4	30574	2245.829412043701	0
4	31018	2282	0
4	31018	2282	-1
4	31095	2287	-1
4	31095	2287	0
4	35201	2632	0
4	35201	2632	-1
4	35457	2652	-1
4	35457	2652	0
4	39606	3000	0
5	1	3.81942165816	1
5	1	3.81942165816	2
5	1	3.81942165816	3
5	1	3.81942165816	4
5	6	3.922399488789	5
5	6	3.922399488789	6
5	6	3.922399488789	7
5	6	3.922399488789	8
5	26	5.922399488789	9
5	26	5.922399488789	10
5	26	5.922399488789	11
5	26	5.922399488789	12
5	47	7.922399488789	13
5	47	7.922399488789	14
5	47	7.922399488789	15
5	47	7.922399488789	16
5	65	8.422399488789	17
5	65	8.422399488789	18
5	65	8.422399488789	19
5	65	8.422399488789	20
5	71	8.525377319418	21
5	71	8.525377319418	22
5	71	8.525377319418	23
5	89	9.922399488789	24
5	89	9.922399488789	25
5	89	9.922399488789	26
5	89	9.922399488789	27
5	103	11.922399488789	28
5	103	11.922399488789	29
5	103	11.922399488789	30
5	103	11.922399488789	31
5	112	12.922399488789	32
5	112	12.922399488789	33
5	112	12.922399488789	34
5	112	12.922399488789	35
5	117	13.025377319418	36
5	117	13.025377319418	37
5	117	13.025377319418	38
5	117	13.025377319418	39
5	117	13.025377319418	40
5	141	13.922399488789	41
5	141	13.922399488789	42
5	141	13.922399488789	43
5	141	13.922399488789	44
5	155	15.922399488789	45
5	155	15.922399488789	46
5	155	15.922399488789	47
5	155	15.922399488789	48
5	164	17.422399488789	49
5	164	17.422399488789	50
5	164	17.422399488789	51
5	164	17.422399488789	52
5	169	17.525377319418	53
5	169	17.525377319418	54
5	169	17.525377319418	55
5	169	17.525377319418	56
5	169	17.525377319418	57
5	186	17.922399488789	58
5	186	17.922399488789	59
5	186	17.922399488789	60
5	186	17.922399488789	61
5	202	19.922399488789	62
5	202	19.922399488789	63
5	202	19.922399488789	64
5	202	19.922399488789	65
5	216	21.922399488789	66
5	216	21.922399488789	67
5	216	21.922399488789	68
5	216	21.922399488789	69
5	217	21.922399488789	70
5	217	21.922399488789	71
5	217	21.922399488789	72
5	217	21.922399488789	73
5	226	22.025377319418	74
5	226	22.025377319418	75
5	226	22.025377319418	76
5	226	22.025377319418	77
5	226	22.025377319418	78
5	254	23.922399488789	79
5	254	23.922399488789	80
5	254	23.922399488789	81
5	254	23.922399488789	82
5	268	25.922399488789	83
5	268	25.922399488789	84
5	268	25.922399488789	85
5	268	25.922399488789	86
5	277	26.422399488789	87
5	277	26.422399488789	88
5	277	26.422399488789	89
5	277	26.422399488789	90
5	282	26.525377319418	91
5	282	26.525377319418	92
5	282	26.525377319418	93
5	282	26.525377319418	94
5	282	26.525377319418	95
5	306	27.922399488789	96
5	306	27.922399488789	97
5	306	27.922399488789	98
5	306	27.922399488789	99
5	315	29.922399488789	100
5	315	29.922399488789	101
5	315	29.922399488789	102
5	315	29.922399488789	103
5	329	30.922399488789	104
5	329	30.922399488789	105
5	329	30.922399488789	106
5	329	30.922399488789	107
5	334	31.025377319418	108
5	334	31.025377319418	109
5	334	31.025377319418	110
5	334	31.025377319418	111
5	334	31.025377319418	112
5	358	31.922399488789	113
5	358	31.922399488789	114
5	358	31.922399488789	115
5	358	31.922399488789	116
5	367	33.922399488789	117
5	367	33.922399488789	118
5	367	33.922399488789	119
5	367	33.922399488789	120
5	381	35.422399488789	121
5	381	35.422399488789	122
5	381	35.422399488789	123
5	381	35.422399488789	124
5	386	35.525377319418	125
5	386	35.525377319418	126
5	386	35.525377319418	127
5	386	35.525377319418	128
5	386	35.525377319418	129
5	403	35.922399488789	130
5	403	35.922399488789	131
5	403	35.922399488789	132
5	403	35.922399488789	133
5	419	37.922399488789	134
5	419	37.922399488789	135
5	419	37.922399488789	136
5	419	37.922399488789	137
5	428	39.922399488789	138
5	428	39.922399488789	139
5	428	39.922399488789	140
5	428	39.922399488789	141
5	429	39.922399488789	142
5	429	39.922399488789	143
5	429	39.922399488789	144
5	429	39.922399488789	145
5	443	40.025377319418	146
5	443	40.025377319418	147
5	443	40.025377319418	148
5	443	40.025377319418	149
5	443	40.025377319418	150
5	471	41.922399488789	151
5	471	41.922399488789	152
5	471	41.922399488789	153
5	471	41.922399488789	154
5	480	43.922399488789	155
5	480	43.922399488789	156
5	480	43.922399488789	157
5	480	43.922399488789	158
5	489	44.422399488789	159
5	489	44.422399488789	160
5	489	44.422399488789	161
5	489	44.422399488789	162
5	494	44.525377319418	163
5	494	44.525377319418	164
5	494	44.525377319418	165
5	494	44.525377319418	166
5	494	44.525377319418	167
5	523	45.922399488789	168
5	523	45.922399488789	169
5	523	45.922399488789	170
5	523	45.922399488789	171
5	532	47.922399488789	172
5	532	47.922399488789	173
5	532	47.922399488789	174
5	532	47.922399488789	175
5	541	48.922399488789	176
5	541	48.922399488789	177
5	541	48.922399488789	178
5	541	48.922399488789	179
5	546	49.025377319418	180
5	546	49.025377319418	181
5	546	49.025377319418	182
5	546	49.025377319418	183
5	546	49.025377319418	184
5	570	49.922399488789	185
5	570	49.922399488789	186
5	570	49.922399488789	187
5	570	49.922399488789	188
5	584	51.922399488789	189
5	584	51.922399488789	190
5	584	51.922399488789	191
5	584	51.922399488789	192
5	593	53.422399488789	193
5	593	53.422399488789	194
5	593	53.422399488789	195
5	593	53.422399488789	196
5	598	53.525377319418	197
5	598	53.525377319418	198
5	598	53.525377319418	199
5	598	53.525377319418	200
5	598	53.525377319418	201
5	615	53.922399488789	202
5	615	53.922399488789	203
5	615	53.922399488789	204
5	615	53.922399488789	205
5	636	55.922399488789	206
5	636	55.922399488789	207
5	636	55.922399488789	208
5	636	55.922399488789	209
5	645	57.922399488789	210
5	645	57.922399488789	211
5	645	57.922399488789	212
5	645	57.922399488789	213
5	646	57.922399488789	214
5	646	57.922399488789	215
5	646	57.922399488789	216
5	646	57.922399488789	217
5	655	58.025377319418	218
5	655	58.025377319418	219
5	655	58.025377319418	220
5	655	58.025377319418	221
5	655	58.025377319418	222
5	683	59.922399488789	223
5	683	59.922399488789	224
5	683	59.922399488789	225
5	683	59.922399488789	226
5	697	61.922399488789	227
5	697	61.922399488789	228
5	697	61.922399488789	229
5	697	61.922399488789	230
5	706	62.422399488789	231
5	706	62.422399488789	232
5	706	62.422399488789	233
5	706	62.422399488789	234
5	711	62.525377319418	235
5	711	62.525377319418	236
5	711	62.525377319418	237
5	711	62.525377319418	238
5	711	62.525377319418	239
5	735	63.922399488789	240
5	735	63.922399488789	241
5	735	63.922399488789	242
5	735	63.922399488789	243
5	749	65.922399488789	244
5	749	65.922399488789	245
5	749	65.922399488789	246
5	749	65.922399488789	247
5	758	66.922399488789	248
5	758	66.922399488789	249
5	758	66.922399488789	250
5	758	66.922399488789	251
5	763	67.025377319418	252
5	763	67.025377319418	253
5	763	67.025377319418	254
5	763	67.025377319418	255
5	763	67.025377319418	256
5	787	67.922399488789	257
5	787	67.922399488789	258
5	787	67.922399488789	259
5	787	67.922399488789	260
5	796	69.922399488789	261
5	796	69.922399488789	262
5	796	69.922399488789	263
5	796	69.922399488789	264
5	810	71.422399488789	265
5	810	71.422399488789	266
5	810	71.422399488789	267
5	810	71.422399488789	268
5	815	71.525377319418	269
5	815	71.525377319418	270
5	815	71.525377319418	271
5	815	71.525377319418	272
5	815	71.525377319418	273
5	832	71.922399488789	274
5	832	71.922399488789	275
5	832	71.922399488789	276
5	832	71.922399488789	277
5	848	73.922399488789	278
5	848	73.922399488789	279
5	848	73.922399488789	280
5	848	73.922399488789	281
5	862	75.922399488789	282
5	862	75.922399488789	283
5	862	75.922399488789	284
5	862	75.922399488789	285
5	863	75.922399488789	286
5	863	75.922399488789	287
5	863	75.922399488789	288
5	863	75.922399488789	289
5	872	76.025377319418	290
5	872	76.025377319418	291
5	872	76.025377319418	292
5	872	76.025377319418	293
5	872	76.025377319418	294
5	900	77.922399488789	295
5	900	77.922399488789	296
5	900	77.922399488789	297
5	900	77.922399488789	298
5	909	79.922399488789	299
5	909	79.922399488789	300
5	909	79.922399488789	301
5	909	79.922399488789	302
5	923	80.422399488789	303
5	923	80.422399488789	304
5	923	80.422399488789	305
5	923	80.422399488789	306
5	928	80.525377319418	307
5	928	80.525377319418	308
5	928	80.525377319418	309
5	928	80.525377319418	310
5	928	80.525377319418	311
5	952	81.922399488789	312
5	952	81.922399488789	313
5	952	81.922399488789	314
5	952	81.922399488789	315
5	961	83.922399488789	316
5	961	83.922399488789	317
5	961	83.922399488789	318
5	961	83.922399488789	319
5	970	84.922399488789	320
5	970	84.922399488789	321
5	970	84.922399488789	322
5	970	84.922399488789	323
5	980	85.025377319418	324
5	980	85.025377319418	325
5	980	85.025377319418	326
5	980	85.025377319418	327
5	980	85.025377319418	328
5	1004	85.922399488789	329
5	1004	85.922399488789	330
5	1004	85.922399488789	331
5	1004	85.922399488789	332
5	1013	87.922399488789	333
5	1013	87.922399488789	334
5	1013	87.922399488789	335
5	1013	87.922399488789	336
5	1022	89.422399488789	337
5	1022	89.422399488789	338
5	1022	89.422399488789	339
5	1022	89.422399488789	340
5	1027	89.525377319418	341
5	1027	89.525377319418	342
5	1027	89.525377319418	343
5	1027	89.525377319418	344
5	1027	89.525377319418	345
5	1044	89.922399488789	346
5	1044	89.922399488789	347
5	1044	89.922399488789	348
5	1044	89.922399488789	349
5	1065	91.922399488789	350
5	1065	91.922399488789	351
5	1065	91.922399488789	352
5	1065	91.922399488789	353
5	1074	93.922399488789	354
5	1074	93.922399488789	355
5	1074	93.922399488789	356
5	1074	93.922399488789	357
5	1075	93.922399488789	358
5	1075	93.922399488789	359
5	1075	93.922399488789	360
5	1075	93.922399488789	361
5	1084	94.025377319418	362
5	1084	94.025377319418	363
5	1084	94.025377319418	364
5	1084	94.025377319418	365
5	1084	94.025377319418	366
5	1117	95.922399488789	367
5	1117	95.922399488789	368
5	1117	95.922399488789	369
5	1117	95.922399488789	370
5	1126	97.922399488789	371
5	1126	97.922399488789	372
5	1126	97.922399488789	373
5	1126	97.922399488789	374
5	1135	98.422399488789	375
5	1135	98.422399488789	376
5	1135	98.422399488789	377
5	1135	98.422399488789	378
5	1140	98.525377319418	379
5	1140	98.525377319418	380
5	1140	98.525377319418	381
5	1140	98.525377319418	382
5	1140	98.525377319418	383
5	1164	99.922399488789	384
5	1164	99.922399488789	385
5	1164	99.922399488789	386
5	1164	99.922399488789	387
5	1178	101.922399488789	388
5	1178	101.922399488789	389
5	1178	101.922399488789	390
5	1178	101.922399488789	391
5	1187	102.922399488789	392
5	1187	102.922399488789	393
5	1187	102.922399488789	394
5	1187	102.922399488789	395
5	1192	103.025377319418	396
5	1192	103.025377319418	397
5	1192	103.025377319418	398
5	1192	103.025377319418	399
5	1192	103.025377319418	400
5	1216	103.922399488789	401
5	1216	103.922399488789	402
5	1216	103.922399488789	403
5	1216	103.922399488789	404
5	1230	105.922399488789	405
5	1230	105.922399488789	406
5	1230	105.922399488789	407
5	1230	105.922399488789	408
5	1239	107.422399488789	409
5	1239	107.422399488789	410
5	1239	107.422399488789	411
5	1239	107.422399488789	412
5	1244	107.525377319418	413
5	1244	107.525377319418	414
5	1244	107.525377319418	415
5	1244	107.525377319418	416
5	1244	107.525377319418	417
5	1261	107.922399488789	418
5	1261	107.922399488789	419
5	1261	107.922399488789	420
5	1261	107.922399488789	421
5	1277	109.922399488789	422
5	1277	109.922399488789	423
5	1277	109.922399488789	424
5	1277	109.922399488789	425
5	1291	111.922399488789	426
5	1291	111.922399488789	427
5	1291	111.922399488789	428
5	1291	111.922399488789	429
5	1292	111.922399488789	430
5	1292	111.922399488789	431
5	1292	111.922399488789	432
5	1292	111.922399488789	433
5	1301	112.025377319418	434
5	1301	112.025377319418	435
5	1301	112.025377319418	436
5	1301	112.025377319418	437
5	1301	112.025377319418	438
5	1329	113.922399488789	439
5	1329	113.922399488789	440
5	1329	113.922399488789	441
5	1329	113.922399488789	442
5	1343	115.922399488789	443
5	1343	115.922399488789	444
5	1343	115.922399488789	445
5	1343	115.922399488789	446
5	1352	116.422399488789	447
5	1352	116.422399488789	448
5	1352	116.422399488789	449
5	1352	116.422399488789	450
5	1357	116.525377319418	451
5	1357	116.525377319418	452
5	1357	116.525377319418	453
5	1357	116.525377319418	454
5	1357	116.525377319418	455
5	1381	117.922399488789	456
5	1381	117.922399488789	457
5	1381	117.922399488789	458
5	1381	117.922399488789	459
5	1390	119.922399488789	460
5	1390	119.922399488789	461
5	1390	119.922399488789	462
5	1390	119.922399488789	463
5	1404	120.922399488789	464
5	1404	120.922399488789	465
5	1404	120.922399488789	466
5	1404	120.922399488789	467
5	1409	121.025377319418	468
5	1409	121.025377319418	469
5	1409	121.025377319418	470
5	1409	121.025377319418	471
5	1409	121.025377319418	472
5	1433	121.922399488789	473
5	1433	121.922399488789	474
5	1433	121.922399488789	475
5	1433	121.922399488789	476
5	1442	123.922399488789	477
5	1442	123.922399488789	478
5	1442	123.922399488789	479
5	1442	123.922399488789	480
5	1456	125.422399488789	481
5	1456	125.422399488789	482
5	1456	125.422399488789	483
5	1456	125.422399488789	484
5	1461	125.525377319418	485
5	1461	125.525377319418	486
5	1461	125.525377319418	487
5	1461	125.525377319418	488
5	1461	125.525377319418	489
5	1478	125.922399488789	490
5	1478	125.922399488789	491
5	1478	125.922399488789	492
5	1478	125.922399488789	493
5	1494	127.922399488789	494
5	1494	127.922399488789	495
5	1494	127.922399488789	496
5	1494	127.922399488789	497
5	1503	129.922399488789	498
5	1503	129.922399488789	499
5	1503	129.922399488789	500
5	1503	129.922399488789	501
5	1504	129.922399488789	502
5	1504	129.922399488789	503
5	1504	129.922399488789	504
5	1504	129.922399488789	505
5	1518	130.025377319418	506
5	1518	130.025377319418	507
5	1518	130.025377319418	508
5	1518	130.025377319418	509
5	1518	130.025377319418	510
5	1546	131.922399488789	511
5	1546	131.922399488789	512
5	1546	131.922399488789	513
5	1546	131.922399488789	514
5	1555	133.922399488789	515
5	1555	133.922399488789	516
5	1555	133.922399488789	517
5	1555	133.922399488789	518
5	1564	134.422399488789	519
5	1564	134.422399488789	520
5	1564	134.422399488789	521
5	1564	134.422399488789	522
5	1569	134.525377319418	523
5	1569	134.525377319418	524
5	1569	134.525377319418	525
5	1569	134.525377319418	526
5	1569	134.525377319418	527
5	1598	135.922399488789	528
5	1598	135.922399488789	529
5	1598	135.922399488789	530
5	1598	135.922399488789	531
5	1607	137.922399488789	532
5	1607	137.922399488789	533
5	1607	137.922399488789	534
5	1607	137.922399488789	535
5	1616	138.922399488789	536
5	1616	138.922399488789	537
5	1616	138.922399488789	538
5	1616	138.922399488789	539
5	1621	139.025377319418	540
5	1621	139.025377319418	541
5	1621	139.025377319418	542
5	1621	139.025377319418	543
5	1621	139.025377319418	544
5	1645	139.922399488789	545
5	1645	139.922399488789	546
5	1645	139.922399488789	547
5	1645	139.922399488789	548
5	1659	141.922399488789	549
5	1659	141.922399488789	550
5	1659	141.922399488789	551
5	1659	141.922399488789	552
5	1668	143.422399488789	553
5	1668	143.422399488789	554
5	1668	143.422399488789	555
5	1668	143.422399488789	556
5	1673	143.525377319418	557
5	1673	143.525377319418	558
5	1673	143.525377319418	559
5	1673	143.525377319418	560
5	1673	143.525377319418	561
5	1690	143.922399488789	562
5	1690	143.922399488789	563
5	1690	143.922399488789	564
5	1690	143.922399488789	565
5	1711	145.922399488789	566
5	1711	145.922399488789	567
5	1711	145.922399488789	568
5	1711	145.922399488789	569
5	1720	147.922399488789	570
5	1720	147.922399488789	571
5	1720	147.922399488789	572
5	1720	147.922399488789	573
5	1721	147.922399488789	574
5	1721	147.922399488789	575
5	1721	147.922399488789	576
5	1721	147.922399488789	577
5	1730	148.025377319418	578
5	1730	148.025377319418	579
5	1730	148.025377319418	580
5	1730	148.025377319418	581
5	1730	148.025377319418	582
5	1758	149.922399488789	583
5	1758	149.922399488789	584
5	1758	149.922399488789	585
5	1758	149.922399488789	586
5	1772	151.922399488789	587
5	1772	151.922399488789	588
5	1772	151.922399488789	589
5	1772	151.922399488789	590
5	1781	152.422399488789	591
5	1781	152.422399488789	592
5	1781	152.422399488789	593
5	1781	152.422399488789	594
5	1786	152.525377319418	595
5	1786	152.525377319418	596
5	1786	152.525377319418	597
5	1786	152.525377319418	598
5	1786	152.525377319418	599
5	1810	153.922399488789	600
5	1810	153.922399488789	601
5	1810	153.922399488789	602
5	1810	153.922399488789	603
5	1824	155.922399488789	604
5	1824	155.922399488789	605
5	1824	155.922399488789	606
5	1824	155.922399488789	607
5	1833	156.922399488789	608
5	1833	156.922399488789	609
5	1833	156.922399488789	610
5	1833	156.922399488789	611
5	1840	157.043817973736	612
5	1840	157.043817973736	613
5	1840	157.043817973736	614
5	1840	157.043817973736	615
5	1840	157.043817973736	616
5	1862	157.922399488789	617
5	1862	157.922399488789	618
5	1862	157.922399488789	619
5	1862	157.922399488789	620
5	1872	159.922399488789	621
5	1872	159.922399488789	622
5	1872	159.922399488789	623
5	1872	159.922399488789	624
5	1886	161.422399488789	625
5	1886	161.422399488789	626
5	1886	161.422399488789	627
5	1886	161.422399488789	628
5	1891	161.525377319418	629
5	1891	161.525377319418	630
5	1891	161.525377319418	631
5	1891	161.525377319418	632
5	1891	161.525377319418	633
5	1908	161.922399488789	634
5	1908	161.922399488789	635
5	1908	161.922399488789	636
5	1908	161.922399488789	637
5	1924	163.922399488789	638
5	1924	163.922399488789	639
5	1924	163.922399488789	640
5	1924	163.922399488789	641
5	1937	165.922399488789	642
5	1937	165.922399488789	643
5	1937	165.922399488789	644
5	1937	165.922399488789	645
5	1938	165.922399488789	646
5	1938	165.922399488789	647
5	1938	165.922399488789	648
5	1938	165.922399488789	649
5	1948	166.025377319418	650
5	1948	166.025377319418	651
5	1948	166.025377319418	652
5	1948	166.025377319418	653
5	1948	166.025377319418	654
5	1976	167.922399488789	655
5	1976	167.922399488789	656
5	1976	167.922399488789	657
5	1976	167.922399488789	658
5	1985	169.922399488789	659
5	1985	169.922399488789	660
5	1985	169.922399488789	661
5	1985	169.922399488789	662
5	1998	170.422399488789	663
5	1998	170.422399488789	664
5	1998	170.422399488789	665
5	1998	170.422399488789	666
5	2003	170.525377319418	667
5	2003	170.525377319418	668
5	2003	170.525377319418	669
5	2003	170.525377319418	670
5	2003	170.525377319418	671
5	2028	171.922399488789	672
5	2028	171.922399488789	673
5	2028	171.922399488789	674
5	2028	171.922399488789	675
5	2037	173.922399488789	676
5	2037	173.922399488789	677
5	2037	173.922399488789	678
5	2037	173.922399488789	679
5	2046	174.922399488789	680
5	2046	174.922399488789	681
5	2046	174.922399488789	682
5	2046	174.922399488789	683
5	2055	175.025377319418	684
5	2055	175.025377319418	685
5	2055	175.025377319418	686
5	2055	175.025377319418	687
5	2055	175.025377319418	688
5	2079	175.922399488789	689
5	2079	175.922399488789	690
5	2079	175.922399488789	691
5	2079	175.922399488789	692
5	2089	177.922399488789	693
5	2089	177.922399488789	694
5	2089	177.922399488789	695
5	2089	177.922399488789	696
5	2098	179.422399488789	697
5	2098	179.422399488789	698
5	2098	179.422399488789	699
5	2098	179.422399488789	700
5	2103	179.525377319418	701
5	2103	179.525377319418	702
5	2103	179.525377319418	703
5	2103	179.525377319418	704
5	2103	179.525377319418	705
5	2120	179.922399488789	706
5	2120	179.922399488789	707
5	2120	179.922399488789	708
5	2120	179.922399488789	709
5	2141	181.922399488789	710
5	2141	181.922399488789	711
5	2141	181.922399488789	712
5	2141	181.922399488789	713
5	2150	183.922399488789	714
5	2150	183.922399488789	715
5	2150	183.922399488789	716
5	2150	183.922399488789	717
5	2151	183.922399488789	718
5	2151	183.922399488789	719
5	2151	183.922399488789	720
5	2151	183.922399488789	721
5	2160	184.025377319418	722
5	2160	184.025377319418	723
5	2160	184.025377319418	724
5	2160	184.025377319418	725
5	2160	184.025377319418	726
5	2192	185.922399488789	727
5	2192	185.922399488789	728
5	2192	185.922399488789	729
5	2192	185.922399488789	730
5	2202	187.922399488789	731
5	2202	187.922399488789	732
5	2202	187.922399488789	733
5	2202	187.922399488789	734
5	2211	188.422399488789	735
5	2211	188.422399488789	736
5	2211	188.422399488789	737
5	2211	188.422399488789	738
5	2216	188.525377319418	739
5	2216	188.525377319418	740
5	2216	188.525377319418	741
5	2216	188.525377319418	742
5	2216	188.525377319418	743
5	2240	189.922399488789	744
5	2240	189.922399488789	745
5	2240	189.922399488789	746
5	2240	189.922399488789	747
5	2254	191.922399488789	748
5	2254	191.922399488789	749
5	2254	191.922399488789	750
5	2254	191.922399488789	751
5	2263	192.922399488789	752
5	2263	192.922399488789	753
5	2263	192.922399488789	754
5	2263	192.922399488789	755
5	2268	193.025377319418	756
5	2268	193.025377319418	757
5	2268	193.025377319418	758
5	2268	193.025377319418	759
5	2268	193.025377319418	760
5	2292	193.922399488789	761
5	2292	193.922399488789	762
5	2292	193.922399488789	763
5	2292	193.922399488789	764
5	2305	195.922399488789	765
5	2305	195.922399488789	766
5	2305	195.922399488789	767
5	2305	195.922399488789	768
5	2315	197.422399488789	769
5	2315	197.422399488789	770
5	2315	197.422399488789	771
5	2315	197.422399488789	772
5	2320	197.525377319418	773
5	2320	197.525377319418	774
5	2320	197.525377319418	775
5	2320	197.525377319418	776
5	2320	197.525377319418	777
5	2337	197.922399488789	778
5	2337	197.922399488789	779
5	2337	197.922399488789	780
5	2337	197.922399488789	781
5	2353	199.922399488789	782
5	2353	199.922399488789	783
5	2353	199.922399488789	784
5	2353	199.922399488789	785
5	2367	201.922399488789	786
5	2367	201.922399488789	787
5	2367	201.922399488789	788
5	2367	201.922399488789	789
5	2368	201.922399488789	790
5	2368	201.922399488789	791
5	2368	201.922399488789	792
5	2368	201.922399488789	793
5	2377	202.025377319418	794
5	2377	202.025377319418	795
5	2377	202.025377319418	796
5	2377	202.025377319418	797
5	2377	202.025377319418	798
5	2405	203.922399488789	799
5	2405	203.922399488789	800
5	2405	203.922399488789	801
5	2405	203.922399488789	802
5	2418	205.922399488789	803
5	2418	205.922399488789	804
5	2418	205.922399488789	805
5	2418	205.922399488789	806
5	2428	206.422399488789	807
5	2428	206.422399488789	808
5	2428	206.422399488789	809
5	2428	206.422399488789	810
5	2433	206.525377319418	811
5	2433	206.525377319418	812
5	2433	206.525377319418	813
5	2433	206.525377319418	814
5	2433	206.525377319418	815
5	2457	207.922399488789	816
5	2457	207.922399488789	817
5	2457	207.922399488789	818
5	2457	207.922399488789	819
5	2466	209.922399488789	820
5	2466	209.922399488789	821
5	2466	209.922399488789	822
5	2466	209.922399488789	823
5	2479	210.922399488789	824
5	2479	210.922399488789	825
5	2479	210.922399488789	826
5	2479	210.922399488789	827
5	2485	211.025377319418	828
5	2485	211.025377319418	829
5	2485	211.025377319418	830
5	2485	211.025377319418	831
5	2485	211.025377319418	832
5	2509	211.922399488789	833
5	2509	211.922399488789	834
5	2509	211.922399488789	835
5	2509	211.922399488789	836
5	2518	213.922399488789	837
5	2518	213.922399488789	838
5	2518	213.922399488789	839
5	2518	213.922399488789	840
5	2531	215.422399488789	841
5	2531	215.422399488789	842
5	2531	215.422399488789	843
5	2531	215.422399488789	844
5	2536	215.525377319418	845
5	2536	215.525377319418	846
5	2536	215.525377319418	847
5	2536	215.525377319418	848
5	2536	215.525377319418	849
5	2553	215.922399488789	850
5	2553	215.922399488789	851
5	2553	215.922399488789	852
5	2553	215.922399488789	853
5	2570	217.922399488789	854
5	2570	217.922399488789	855
5	2570	217.922399488789	856
5	2570	217.922399488789	857
5	2579	219.922399488789	858
5	2579	219.922399488789	859
5	2579	219.922399488789	860
5	2579	219.922399488789	861
5	2580	219.922399488789	862
5	2580	219.922399488789	863
5	2580	219.922399488789	864
5	2580	219.922399488789	865
5	2593	220.025377319418	866
5	2593	220.025377319418	867
5	2593	220.025377319418	868
5	2593	220.025377319418	869
5	2593	220.025377319418	870
5	2622	221.922399488789	871
5	2622	221.922399488789	872
5	2622	221.922399488789	873
5	2622	221.922399488789	874
5	2631	223.922399488789	875
5	2631	223.922399488789	876
5	2631	223.922399488789	877
5	2631	223.922399488789	878
5	2640	224.422399488789	879
5	2640	224.422399488789	880
5	2640	224.422399488789	881
5	2640	224.422399488789	882
5	2645	224.525377319418	883
5	2645	224.525377319418	884
5	2645	224.525377319418	885
5	2645	224.525377319418	886
5	2645	224.525377319418	887
5	2673	225.922399488789	888
5	2673	225.922399488789	889
5	2673	225.922399488789	890
5	2673	225.922399488789	891
5	2684	227.922399488789	892
5	2684	227.922399488789	893
5	2684	227.922399488789	894
5	2684	227.922399488789	895
5	2693	228.922399488789	896
5	2693	228.922399488789	897
5	2693	228.922399488789	898
5	2693	228.922399488789	899
5	2698	229.025377319418	900
5	2698	229.025377319418	901
5	2698	229.025377319418	902
5	2698	229.025377319418	903
5	2698	229.025377319418	904
5	2722	229.922399488789	905
5	2722	229.922399488789	906
5	2722	229.922399488789	907
5	2722	229.922399488789	908
5	2735	231.922399488789	909
5	2735	231.922399488789	910
5	2735	231.922399488789	911
5	2735	231.922399488789	912
5	2745	233.422399488789	913
5	2745	233.422399488789	914
5	2745	233.422399488789	915
5	2745	233.422399488789	916
5	2750	233.525377319418	917
5	2750	233.525377319418	918
5	2750	233.525377319418	919
5	2750	233.525377319418	920
5	2750	233.525377319418	921
5	2767	233.922399488789	922
5	2767	233.922399488789	923
5	2767	233.922399488789	924
5	2767	233.922399488789	925
5	2786	235.922399488789	926
5	2786	235.922399488789	927
5	2786	235.922399488789	928
5	2786	235.922399488789	929
5	2797	237.922399488789	930
5	2797	237.922399488789	931
5	2797	237.922399488789	932
5	2797	237.922399488789	933
5	2798	237.922399488789	934
5	2798	237.922399488789	935
5	2798	237.922399488789	936
5	2798	237.922399488789	937
5	2807	238.025377319418	938
5	2807	238.025377319418	939
5	2807	238.025377319418	940
5	2807	238.025377319418	941
5	2807	238.025377319418	942
5	2835	239.922399488789	943
5	2835	239.922399488789	944
5	2835	239.922399488789	945
5	2835	239.922399488789	946
5	2848	241.922399488789	947
5	2848	241.922399488789	948
5	2848	241.922399488789	949
5	2848	241.922399488789	950
5	2858	242.422399488789	951
5	2858	242.422399488789	952
5	2858	242.422399488789	953
5	2858	242.422399488789	954
5	2863	242.525377319418	955
5	2863	242.525377319418	956
5	2863	242.525377319418	957
5	2863	242.525377319418	958
5	2863	242.525377319418	959
5	2887	243.922399488789	960
5	2887	243.922399488789	961
5	2887	243.922399488789	962
5	2887	243.922399488789	963
5	2899	245.922399488789	964
5	2899	245.922399488789	965
5	2899	245.922399488789	966
5	2899	245.922399488789	967
5	2909	246.922399488789	968
5	2909	246.922399488789	969
5	2909	246.922399488789	970
5	2909	246.922399488789	971
5	2915	247.025377319418	972
5	2915	247.025377319418	973
5	2915	247.025377319418	974
5	2915	247.025377319418	975
5	2915	247.025377319418	976
5	2939	247.922399488789	977
5	2939	247.922399488789	978
5	2939	247.922399488789	979
5	2939	247.922399488789	980
5	2948	249.922399488789	981
5	2948	249.922399488789	982
5	2948	249.922399488789	983
5	2948	249.922399488789	984
5	2961	251.422399488789	985
5	2961	251.422399488789	986
5	2961	251.422399488789	987
5	2961	251.422399488789	988
5	2966	251.525377319418	989
5	2966	251.525377319418	990
5	2966	251.525377319418	991
5	2966	251.525377319418	992
5	2966	251.525377319418	993
5	2983	251.922399488789	994
5	2983	251.922399488789	995
5	2983	251.922399488789	996
5	2983	251.922399488789	997
5	3000	253.922399488789	998
5	3000	253.922399488789	999
5	3000	253.922399488789	1000
5	3000	253.922399488789	1001
5	3012	255.922399488789	1002
5	3012	255.922399488789	1003
5	3012	255.922399488789	1004
5	3012	255.922399488789	1005
5	3013	255.922399488789	1006
5	3013	255.922399488789	1007
5	3013	255.922399488789	1008
5	3013	255.922399488789	1009
5	3023	256.025377319418	1010
5	3023	256.025377319418	1011
5	3023	256.025377319418	1012
5	3023	256.025377319418	1013
5	3023	256.025377319418	1014
5	3052	257.922399488789	1015
5	3052	257.922399488789	1016
5	3052	257.922399488789	1017
5	3052	257.922399488789	1018
5	3061	259.922399488789	1019
5	3061	259.922399488789	1020
5	3061	259.922399488789	1021
5	3061	259.922399488789	1022
5	3073	260.422399488789	1023
5	3073	260.422399488789	1024
5	3073	260.422399488789	1025
5	3073	260.422399488789	1026
5	3078	260.525377319418	1027
5	3078	260.525377319418	1028
5	3078	260.525377319418	1029
5	3078	260.525377319418	1030
5	3078	260.525377319418	1031
5	3103	261.922399488789	1032
5	3103	261.922399488789	1033
5	3103	261.922399488789	1034
5	3103	261.922399488789	1035
5	3113	263.922399488789	1036
5	3113	263.922399488789	1037
5	3113	263.922399488789	1038
5	3113	263.922399488789	1039
5	3122	264.922399488789	1040
5	3122	264.922399488789	1041
5	3122	264.922399488789	1042
5	3122	264.922399488789	1043
5	3130	265.025377319418	1044
5	3130	265.025377319418	1045
5	3130	265.025377319418	1046
5	3130	265.025377319418	1047
5	3130	265.025377319418	1048
5	3154	265.922399488789	1049
5	3154	265.922399488789	1050
5	3154	265.922399488789	1051
5	3154	265.922399488789	1052
5	3165	267.922399488789	1053
5	3165	267.922399488789	1054
5	3165	267.922399488789	1055
5	3165	267.922399488789	1056
5	3174	269.422399488789	1057
5	3174	269.422399488789	1058
5	3174	269.422399488789	1059
5	3174	269.422399488789	1060
5	3179	269.525377319418	1061
5	3179	269.525377319418	1062
5	3179	269.525377319418	1063
5	3179	269.525377319418	1064
5	3179	269.525377319418	1065
5	3196	269.922399488789	1066
5	3196	269.922399488789	1067
5	3196	269.922399488789	1068
5	3196	269.922399488789	1069
5	3216	271.922399488789	1070
5	3216	271.922399488789	1071
5	3216	271.922399488789	1072
5	3216	271.922399488789	1073
5	3226	273.922399488789	1074
5	3226	273.922399488789	1075
5	3226	273.922399488789	1076
5	3226	273.922399488789	1077
5	3227	273.922399488789	1078
5	3227	273.922399488789	1079
5	3227	273.922399488789	1080
5	3227	273.922399488789	1081
5	3236	274.025377319418	1082
5	3236	274.025377319418	1083
5	3236	274.025377319418	1084
5	3236	274.025377319418	1085
5	3236	274.025377319418	1086
5	3267	275.922399488789	1087
5	3267	275.922399488789	1088
5	3267	275.922399488789	1089
5	3267	275.922399488789	1090
5	3278	277.922399488789	1091
5	3278	277.922399488789	1092
5	3278	277.922399488789	1093
5	3278	277.922399488789	1094
5	3287	278.422399488789	1095
5	3287	278.422399488789	1096
5	3287	278.422399488789	1097
5	3287	278.422399488789	1098
5	3292	278.525377319418	1099
5	3292	278.525377319418	1100
5	3292	278.525377319418	1101
5	3292	278.525377319418	1102
5	3292	278.525377319418	1103
5	3316	279.922399488789	1104
5	3316	279.922399488789	1105
5	3316	279.922399488789	1106
5	3316	279.922399488789	1107
5	3329	281.922399488789	1108
5	3329	281.922399488789	1109
5	3329	281.922399488789	1110
5	3329	281.922399488789	1111
5	3339	282.922399488789	1112
5	3339	282.922399488789	1113
5	3339	282.922399488789	1114
5	3339	282.922399488789	1115
5	3344	283.025377319418	1116
5	3344	283.025377319418	1117
5	3344	283.025377319418	1118
5	3344	283.025377319418	1119
5	3344	283.025377319418	1120
5	3368	283.922399488789	1121
5	3368	283.922399488789	1122
5	3368	283.922399488789	1123
5	3368	283.922399488789	1124
5	3380	285.922399488789	1125
5	3380	285.922399488789	1126
5	3380	285.922399488789	1127
5	3380	285.922399488789	1128
5	3391	287.422399488789	1129
5	3391	287.422399488789	1130
5	3391	287.422399488789	1131
5	3391	287.422399488789	1132
5	3396	287.525377319418	1133
5	3396	287.525377319418	1134
5	3396	287.525377319418	1135
5	3396	287.525377319418	1136
5	3396	287.525377319418	1137
5	3413	287.922399488789	1138
5	3413	287.922399488789	1139
5	3413	287.922399488789	1140
5	3413	287.922399488789	1141
5	3429	289.922399488789	1142
5	3429	289.922399488789	1143
5	3429	289.922399488789	1144
5	3429	289.922399488789	1145
5	3442	291.922399488789	1146
5	3442	291.922399488789	1147
5	3442	291.922399488789	1148
5	3442	291.922399488789	1149
5	3443	291.922399488789	1150
5	3443	291.922399488789	1151
5	3443	291.922399488789	1152
5	3443	291.922399488789	1153
5	3453	292.025377319418	1154
5	3453	292.025377319418	1155
5	3453	292.025377319418	1156
5	3453	292.025377319418	1157
5	3453	292.025377319418	1158
5	3481	293.922399488789	1159
5	3481	293.922399488789	1160
5	3481	293.922399488789	1161
5	3481	293.922399488789	1162
5	3493	295.922399488789	1163
5	3493	295.922399488789	1164
5	3493	295.922399488789	1165
5	3493	295.922399488789	1166
5	3503	296.422399488789	1167
5	3503	296.422399488789	1168
5	3503	296.422399488789	1169
5	3503	296.422399488789	1170
5	3508	296.525377319418	1171
5	3508	296.525377319418	1172
5	3508	296.525377319418	1173
5	3508	296.525377319418	1174
5	3508	296.525377319418	1175
5	3533	297.922399488789	1176
5	3533	297.922399488789	1177
5	3533	297.922399488789	1178
5	3533	297.922399488789	1179
5	3542	299.922399488789	1180
5	3542	299.922399488789	1181
5	3542	299.922399488789	1182
5	3542	299.922399488789	1183
5	3554	300.922399488789	1184
5	3554	300.922399488789	1185
5	3554	300.922399488789	1186
5	3554	300.922399488789	1187
5	3560	301.025377319418	1188
5	3560	301.025377319418	1189
5	3560	301.025377319418	1190
5	3560	301.025377319418	1191
5	3560	301.025377319418	1192
5	3584	301.922399488789	1193
5	3584	301.922399488789	1194
5	3584	301.922399488789	1195
5	3584	301.922399488789	1196
5	3594	303.922399488789	1197
5	3594	303.922399488789	1198
5	3594	303.922399488789	1199
5	3594	303.922399488789	1200
5	3606	305.422399488789	1201
5	3606	305.422399488789	1202
5	3606	305.422399488789	1203
5	3606	305.422399488789	1204
5	3611	305.525377319418	1205
5	3611	305.525377319418	1206
5	3611	305.525377319418	1207
5	3611	305.525377319418	1208
5	3611	305.525377319418	1209
5	3628	305.922399488789	1210
5	3628	305.922399488789	1211
5	3628	305.922399488789	1212
5	3628	305.922399488789	1213
5	3646	307.922399488789	1214
5	3646	307.922399488789	1215
5	3646	307.922399488789	1216
5	3646	307.922399488789	1217
5	3655	309.922399488789	1218
5	3655	309.922399488789	1219
5	3655	309.922399488789	1220
5	3655	309.922399488789	1221
5	3656	309.922399488789	1222
5	3656	309.922399488789	1223
5	3656	309.922399488789	1224
5	3656	309.922399488789	1225
5	3668	310.025377319418	1226
5	3668	310.025377319418	1227
5	3668	310.025377319418	1228
5	3668	310.025377319418	1229
5	3668	310.025377319418	1230
5	3697	311.922399488789	1231
5	3697	311.922399488789	1232
5	3697	311.922399488789	1233
5	3697	311.922399488789	1234
5	3707	313.922399488789	1235
5	3707	313.922399488789	1236
5	3707	313.922399488789	1237
5	3707	313.922399488789	1238
5	3716	314.422399488789	1239
5	3716	314.422399488789	1240
5	3716	314.422399488789	1241
5	3716	314.422399488789	1242
5	3721	314.525377319418	1243
5	3721	314.525377319418	1244
5	3721	314.525377319418	1245
5	3721	314.525377319418	1246
5	3721	314.525377319418	1247
5	3748	315.922399488789	1248
5	3748	315.922399488789	1249
5	3748	315.922399488789	1250
5	3748	315.922399488789	1251
5	3759	317.922399488789	1252
5	3759	317.922399488789	1253
5	3759	317.922399488789	1254
5	3759	317.922399488789	1255
5	3768	318.922399488789	1256
5	3768	318.922399488789	1257
5	3768	318.922399488789	1258
5	3768	318.922399488789	1259
5	3773	319.025377319418	1260
5	3773	319.025377319418	1261
5	3773	319.025377319418	1262
5	3773	319.025377319418	1263
5	3773	319.025377319418	1264
5	3797	319.922399488789	1265
5	3797	319.922399488789	1266
5	3797	319.922399488789	1267
5	3797	319.922399488789	1268
5	3810	321.922399488789	1269
5	3810	321.922399488789	1270
5	3810	321.922399488789	1271
5	3810	321.922399488789	1272
5	3820	323.422399488789	1273
5	3820	323.422399488789	1274
5	3820	323.422399488789	1275
5	3820	323.422399488789	1276
5	3825	323.525377319418	1277
5	3825	323.525377319418	1278
5	3825	323.525377319418	1279
5	3825	323.525377319418	1280
5	3825	323.525377319418	1281
5	3842	323.922399488789	1282
5	3842	323.922399488789	1283
5	3842	323.922399488789	1284
5	3842	323.922399488789	1285
5	3861	325.922399488789	1286
5	3861	325.922399488789	1287
5	3861	325.922399488789	1288
5	3861	325.922399488789	1289
5	3872	327.922399488789	1290
5	3872	327.922399488789	1291
5	3872	327.922399488789	1292
5	3872	327.922399488789	1293
5	3873	327.922399488789	1294
5	3873	327.922399488789	1295
5	3873	327.922399488789	1296
5	3873	327.922399488789	1297
5	3882	328.025377319418	1298
5	3882	328.025377319418	1299
5	3882	328.025377319418	1300
5	3882	328.025377319418	1301
5	3882	328.025377319418	1302
5	3910	329.922399488789	1303
5	3910	329.922399488789	1304
5	3910	329.922399488789	1305
5	3910	329.922399488789	1306
5	3923	331.922399488789	1307
5	3923	331.922399488789	1308
5	3923	331.922399488789	1309
5	3923	331.922399488789	1310
5	3933	332.422399488789	1311
5	3933	332.422399488789	1312
5	3933	332.422399488789	1313
5	3933	332.422399488789	1314
5	3938	332.525377319418	1315
5	3938	332.525377319418	1316
5	3938	332.525377319418	1317
5	3938	332.525377319418	1318
5	3938	332.525377319418	1319
5	3962	333.922399488789	1320
5	3962	333.922399488789	1321
5	3962	333.922399488789	1322
5	3962	333.922399488789	1323
5	3974	335.922399488789	1324
5	3974	335.922399488789	1325
5	3974	335.922399488789	1326
5	3974	335.922399488789	1327
5	3984	336.922399488789	1328
5	3984	336.922399488789	1329
5	3984	336.922399488789	1330
5	3984	336.922399488789	1331
5	3990	337.025377319418	1332
5	3990	337.025377319418	1333
5	3990	337.025377319418	1334
5	3990	337.025377319418	1335
5	3990	337.025377319418	1336
5	4014	337.922399488789	1337
5	4014	337.922399488789	1338
5	4014	337.922399488789	1339
5	4014	337.922399488789	1340
5	4023	339.922399488789	1341
5	4023	339.922399488789	1342
5	4023	339.922399488789	1343
5	4023	339.922399488789	1344
5	4036	341.422399488789	1345
5	4036	341.422399488789	1346
5	4036	341.422399488789	1347
5	4036	341.422399488789	1348
5	4041	341.525377319418	1349
5	4041	341.525377319418	1350
5	4041	341.525377319418	1351
5	4041	341.525377319418	1352
5	4041	341.525377319418	1353
5	4058	341.922399488789	1354
5	4058	341.922399488789	1355
5	4058	341.922399488789	1356
5	4058	341.922399488789	1357
5	4075	343.922399488789	1358
5	4075	343.922399488789	1359
5	4075	343.922399488789	1360
5	4075	343.922399488789	1361
5	4087	345.922399488789	1362
5	4087	345.922399488789	1363
5	4087	345.922399488789	1364
5	4087	345.922399488789	1365
5	4088	345.922399488789	1366
5	4088	345.922399488789	1367
5	4088	345.922399488789	1368
5	4088	345.922399488789	1369
5	4098	346.025377319418	1370
5	4098	346.025377319418	1371
5	4098	346.025377319418	1372
5	4098	346.025377319418	1373
5	4098	346.025377319418	1374
5	4127	347.922399488789	1375
5	4127	347.922399488789	1376
5	4127	347.922399488789	1377
5	4127	347.922399488789	1378
5	4136	349.922399488789	1379
5	4136	349.922399488789	1380
5	4136	349.922399488789	1381
5	4136	349.922399488789	1382
5	4148	350.422399488789	1383
5	4148	350.422399488789	1384
5	4148	350.422399488789	1385
5	4148	350.422399488789	1386
5	4153	350.525377319418	1387
5	4153	350.525377319418	1388
5	4153	350.525377319418	1389
5	4153	350.525377319418	1390
5	4153	350.525377319418	1391
5	4178	351.922399488789	1392
5	4178	351.922399488789	1393
5	4178	351.922399488789	1394
5	4178	351.922399488789	1395
5	4188	353.922399488789	1396
5	4188	353.922399488789	1397
5	4188	353.922399488789	1398
5	4188	353.922399488789	1399
5	4197	354.922399488789	1400
5	4197	354.922399488789	1401
5	4197	354.922399488789	1402
5	4197	354.922399488789	1403
5	4205	355.025377319418	1404
5	4205	355.025377319418	1405
5	4205	355.025377319418	1406
5	4205	355.025377319418	1407
5	4205	355.025377319418	1408
5	4229	355.922399488789	1409
5	4229	355.922399488789	1410
5	4229	355.922399488789	1411
5	4229	355.922399488789	1412
5	4240	357.922399488789	1413
5	4240	357.922399488789	1414
5	4240	357.922399488789	1415
5	4240	357.922399488789	1416
5	4249	359.422399488789	1417
5	4249	359.422399488789	1418
5	4249	359.422399488789	1419
5	4249	359.422399488789	1420
5	4254	359.525377319418	1421
5	4254	359.525377319418	1422
5	4254	359.525377319418	1423
5	4254	359.525377319418	1424
5	4254	359.525377319418	1425
5	4271	359.922399488789	1426
5	4271	359.922399488789	1427
5	4271	359.922399488789	1428
5	4271	359.922399488789	1429
5	4291	361.922399488789	1430
5	4291	361.922399488789	1431
5	4291	361.922399488789	1432
5	4291	361.922399488789	1433
5	4301	363.922399488789	1434
5	4301	363.922399488789	1435
5	4301	363.922399488789	1436
5	4301	363.922399488789	1437
5	4302	363.922399488789	1438
5	4302	363.922399488789	1439
5	4302	363.922399488789	1440
5	4302	363.922399488789	1441
5	4311	364.025377319418	1442
5	4311	364.025377319418	1443
5	4311	364.025377319418	1444
5	4311	364.025377319418	1445
5	4311	364.025377319418	1446
5	4342	365.922399488789	1447
5	4342	365.922399488789	1448
5	4342	365.922399488789	1449
5	4342	365.922399488789	1450
5	4353	367.922399488789	1451
5	4353	367.922399488789	1452
5	4353	367.922399488789	1453
5	4353	367.922399488789	1454
5	4362	368.422399488789	1455
5	4362	368.422399488789	1456
5	4362	368.422399488789	1457
5	4362	368.422399488789	1458
5	4367	368.525377319418	1459
5	4367	368.525377319418	1460
5	4367	368.525377319418	1461
5	4367	368.525377319418	1462
5	4367	368.525377319418	1463
5	4391	369.922399488789	1464
5	4391	369.922399488789	1465
5	4391	369.922399488789	1466
5	4391	369.922399488789	1467
5	4404	371.922399488789	1468
5	4404	371.922399488789	1469
5	4404	371.922399488789	1470
5	4404	371.922399488789	1471
5	4414	372.922399488789	1472
5	4414	372.922399488789	1473
5	4414	372.922399488789	1474
5	4414	372.922399488789	1475
5	4419	373.025377319418	1476
5	4419	373.025377319418	1477
5	4419	373.025377319418	1478
5	4419	373.025377319418	1479
5	4419	373.025377319418	1480
5	4443	373.922399488789	1481
5	4443	373.922399488789	1482
5	4443	373.922399488789	1483
5	4443	373.922399488789	1484
5	4455	375.922399488789	1485
5	4455	375.922399488789	1486
5	4455	375.922399488789	1487
5	4455	375.922399488789	1488
5	4466	377.422399488789	1489
5	4466	377.422399488789	1490
5	4466	377.422399488789	1491
5	4466	377.422399488789	1492
5	4471	377.525377319418	1493
5	4471	377.525377319418	1494
5	4471	377.525377319418	1495
5	4471	377.525377319418	1496
5	4471	377.525377319418	1497
5	4488	377.922399488789	1498
5	4488	377.922399488789	1499
5	4488	377.922399488789	1500
5	4488	377.922399488789	1501
5	4504	379.922399488789	1502
5	4504	379.922399488789	1503
5	4504	379.922399488789	1504
5	4504	379.922399488789	1505
5	4517	381.922399488789	1506
5	4517	381.922399488789	1507
5	4517	381.922399488789	1508
5	4517	381.922399488789	1509
5	4518	381.922399488789	1510
5	4518	381.922399488789	1511
5	4518	381.922399488789	1512
5	4518	381.922399488789	1513
5	4528	382.025377319418	1514
5	4528	382.025377319418	1515
5	4528	382.025377319418	1516
5	4528	382.025377319418	1517
5	4528	382.025377319418	1518
5	4556	383.922399488789	1519
5	4556	383.922399488789	1520
5	4556	383.922399488789	1521
5	4556	383.922399488789	1522
5	4568	385.922399488789	1523
5	4568	385.922399488789	1524
5	4568	385.922399488789	1525
5	4568	385.922399488789	1526
5	4578	386.422399488789	1527
5	4578	386.422399488789	1528
5	4578	386.422399488789	1529
5	4578	386.422399488789	1530
5	4583	386.525377319418	1531
5	4583	386.525377319418	1532
5	4583	386.525377319418	1533
5	4583	386.525377319418	1534
5	4583	386.525377319418	1535
5	4608	387.922399488789	1536
5	4608	387.922399488789	1537
5	4608	387.922399488789	1538
5	4608	387.922399488789	1539
5	4617	389.922399488789	1540
5	4617	389.922399488789	1541
5	4617	389.922399488789	1542
5	4617	389.922399488789	1543
5	4629	390.922399488789	1544
5	4629	390.922399488789	1545
5	4629	390.922399488789	1546
5	4629	390.922399488789	1547
5	4635	391.025377319418	1548
5	4635	391.025377319418	1549
5	4635	391.025377319418	1550
5	4635	391.025377319418	1551
5	4635	391.025377319418	1552
5	4659	391.922399488789	1553
5	4659	391.922399488789	1554
5	4659	391.922399488789	1555
5	4659	391.922399488789	1556
5	4669	393.922399488789	1557
5	4669	393.922399488789	1558
5	4669	393.922399488789	1559
5	4669	393.922399488789	1560
5	4681	395.422399488789	1561
5	4681	395.422399488789	1562
5	4681	395.422399488789	1563
5	4681	395.422399488789	1564
5	4686	395.525377319418	1565
5	4686	395.525377319418	1566
5	4686	395.525377319418	1567
5	4686	395.525377319418	1568
5	4686	395.525377319418	1569
5	4703	395.922399488789	1570
5	4703	395.922399488789	1571
5	4703	395.922399488789	1572
5	4703	395.922399488789	1573
5	4721	397.922399488789	1574
5	4721	397.922399488789	1575
5	4721	397.922399488789	1576
5	4721	397.922399488789	1577
5	4730	399.922399488789	1578
5	4730	399.922399488789	1579
5	4730	399.922399488789	1580
5	4730	399.922399488789	1581
5	4731	399.922399488789	1582
5	4731	399.922399488789	1583
5	4731	399.922399488789	1584
5	4731	399.922399488789	1585
5	4743	400.025377319418	1586
5	4743	400.025377319418	1587
5	4743	400.025377319418	1588
5	4743	400.025377319418	1589
5	4743	400.025377319418	1590
5	4772	401.922399488789	1591
5	4772	401.922399488789	1592
5	4772	401.922399488789	1593
5	4772	401.922399488789	1594
5	4782	403.922399488789	1595
5	4782	403.922399488789	1596
5	4782	403.922399488789	1597
5	4782	403.922399488789	1598
5	4791	404.422399488789	1599
5	4791	404.422399488789	1600
5	4791	404.422399488789	1601
5	4791	404.422399488789	1602
5	4796	404.525377319418	1603
5	4796	404.525377319418	1604
5	4796	404.525377319418	1605
5	4796	404.525377319418	1606
5	4796	404.525377319418	1607
5	4823	405.922399488789	1608
5	4823	405.922399488789	1609
5	4823	405.922399488789	1610
5	4823	405.922399488789	1611
5	4834	407.922399488789	1612
5	4834	407.922399488789	1613
5	4834	407.922399488789	1614
5	4834	407.922399488789	1615
5	4843	408.922399488789	1616
5	4843	408.922399488789	1617
5	4843	408.922399488789	1618
5	4843	408.922399488789	1619
5	4848	409.025377319418	1620
5	4848	409.025377319418	1621
5	4848	409.025377319418	1622
5	4848	409.025377319418	1623
5	4848	409.025377319418	1624
5	4872	409.922399488789	1625
5	4872	409.922399488789	1626
5	4872	409.922399488789	1627
5	4872	409.922399488789	1628
5	4885	411.922399488789	1629
5	4885	411.922399488789	1630
5	4885	411.922399488789	1631
5	4885	411.922399488789	1632
5	4895	413.422399488789	1633
5	4895	413.422399488789	1634
5	4895	413.422399488789	1635
5	4895	413.422399488789	1636
5	4900	413.525377319418	1637
5	4900	413.525377319418	1638
5	4900	413.525377319418	1639
5	4900	413.525377319418	1640
5	4900	413.525377319418	1641
5	4917	413.922399488789	1642
5	4917	413.922399488789	1643
5	4917	413.922399488789	1644
5	4917	413.922399488789	1645
5	4936	415.922399488789	1646
5	4936	415.922399488789	1647
5	4936	415.922399488789	1648
5	4936	415.922399488789	1649
5	4947	417.922399488789	1650
5	4947	417.922399488789	1651
5	4947	417.922399488789	1652
5	4947	417.922399488789	1653
5	4948	417.922399488789	1654
5	4948	417.922399488789	1655
5	4948	417.922399488789	1656
5	4948	417.922399488789	1657
5	4957	418.025377319418	1658
5	4957	418.025377319418	1659
5	4957	418.025377319418	1660
5	4957	418.025377319418	1661
5	4957	418.025377319418	1662
5	4985	419.922399488789	1663
5	4985	419.922399488789	1664
5	4985	419.922399488789	1665
5	4985	419.922399488789	1666
5	4998	421.922399488789	1667
5	4998	421.922399488789	1668
5	4998	421.922399488789	1669
5	4998	421.922399488789	1670
5	5008	422.422399488789	1671
5	5008	422.422399488789	1672
5	5008	422.422399488789	1673
5	5008	422.422399488789	1674
5	5013	422.525377319418	1675
5	5013	422.525377319418	1676
5	5013	422.525377319418	1677
5	5013	422.525377319418	1678
5	5013	422.525377319418	1679
5	5037	423.922399488789	1680
5	5037	423.922399488789	1681
5	5037	423.922399488789	1682
5	5037	423.922399488789	1683
5	5049	425.922399488789	1684
5	5049	425.922399488789	1685
5	5049	425.922399488789	1686
5	5049	425.922399488789	1687
5	5059	426.922399488789	1688
5	5059	426.922399488789	1689
5	5059	426.922399488789	1690
5	5059	426.922399488789	1691
5	5065	427.025377319418	1692
5	5065	427.025377319418	1693
5	5065	427.025377319418	1694
5	5065	427.025377319418	1695
5	5065	427.025377319418	1696
5	5089	427.922399488789	1697
5	5089	427.922399488789	1698
5	5089	427.922399488789	1699
5	5089	427.922399488789	1700
5	5098	429.922399488789	1701
5	5098	429.922399488789	1702
5	5098	429.922399488789	1703
5	5098	429.922399488789	1704
5	5111	431.422399488789	1705
5	5111	431.422399488789	1706
5	5111	431.422399488789	1707
5	5111	431.422399488789	1708
5	5116	431.525377319418	1709
5	5116	431.525377319418	1710
5	5116	431.525377319418	1711
5	5116	431.525377319418	1712
5	5116	431.525377319418	1713
5	5133	431.922399488789	1714
5	5133	431.922399488789	1715
5	5133	431.922399488789	1716
5	5133	431.922399488789	1717
5	5150	433.922399488789	1718
5	5150	433.922399488789	1719
5	5150	433.922399488789	1720
5	5150	433.922399488789	1721
5	5162	435.922399488789	1722
5	5162	435.922399488789	1723
5	5162	435.922399488789	1724
5	5162	435.922399488789	1725
5	5163	435.922399488789	1726
5	5163	435.922399488789	1727
5	5163	435.922399488789	1728
5	5163	435.922399488789	1729
5	5173	436.025377319418	1730
5	5173	436.025377319418	1731
5	5173	436.025377319418	1732
5	5173	436.025377319418	1733
5	5173	436.025377319418	1734
5	5202	437.922399488789	1735
5	5202	437.922399488789	1736
5	5202	437.922399488789	1737
5	5202	437.922399488789	1738
5	5211	439.922399488789	1739
5	5211	439.922399488789	1740
5	5211	439.922399488789	1741
5	5211	439.922399488789	1742
5	5223	440.422399488789	1743
5	5223	440.422399488789	1744
5	5223	440.422399488789	1745
5	5223	440.422399488789	1746
5	5228	440.525377319418	1747
5	5228	440.525377319418	1748
5	5228	440.525377319418	1749
5	5228	440.525377319418	1750
5	5228	440.525377319418	1751
5	5253	441.922399488789	1752
5	5253	441.922399488789	1753
5	5253	441.922399488789	1754
5	5253	441.922399488789	1755
5	5263	443.922399488789	1756
5	5263	443.922399488789	1757
5	5263	443.922399488789	1758
5	5263	443.922399488789	1759
5	5272	444.922399488789	1760
5	5272	444.922399488789	1761
5	5272	444.922399488789	1762
5	5272	444.922399488789	1763
5	5280	445.025377319418	1764
5	5280	445.025377319418	1765
5	5280	445.025377319418	1766
5	5280	445.025377319418	1767
5	5280	445.025377319418	1768
5	5304	445.922399488789	1769
5	5304	445.922399488789	1770
5	5304	445.922399488789	1771
5	5304	445.922399488789	1772
5	5315	447.922399488789	1773
5	5315	447.922399488789	1774
5	5315	447.922399488789	1775
5	5315	447.922399488789	1776
5	5324	449.422399488789	1777
5	5324	449.422399488789	1778
5	5324	449.422399488789	1779
5	5324	449.422399488789	1780
5	5329	449.525377319418	1781
5	5329	449.525377319418	1782
5	5329	449.525377319418	1783
5	5329	449.525377319418	1784
5	5329	449.525377319418	1785
5	5346	449.922399488789	1786
5	5346	449.922399488789	1787
5	5346	449.922399488789	1788
5	5346	449.922399488789	1789
5	5375	454.827149670799	1790
5	5383	454.995081704445	1791
5	5408	456.995081704445	1792
5	5436	458.995081704445	1793
5	5446	459.495081704445	1794
5	5477	460.995081704445	1795
5	5488	462.995081704445	1796
5	5497	463.995081704445	1797
5	5527	464.995081704445	1798
5	5539	466.995081704445	1799
5	5549	468.495081704445	1800
5	5572	468.995081704445	1801
5	5590	470.995081704445	1802
5	5605	472.995081704445	1803
5	5606	472.995081704445	1804
5	5640	474.995081704445	1805
5	5652	476.995081704445	1806
5	5662	477.495081704445	1807
5	5691	478.995081704445	1808
5	5703	480.995081704445	1809
5	5713	481.995081704445	1810
5	5743	482.995081704445	1811
5	5753	484.995081704445	1812
5	5765	486.495081704445	1813
5	5788	486.995081704445	1814
5	5804	488.995081704445	1815
5	5820	490.995081704445	1816
5	5821	490.995081704445	1817
5	5856	492.995081704445	1818
5	5866	494.995081704445	1819
5	5877	495.495081704445	1820
5	5907	496.995081704445	1821
5	5917	498.995081704445	1822
5	5927	499.995081704445	1823
5	5958	500.995081704445	1824
5	5969	502.995081704445	1825
5	5979	504.495081704445	1826
5	6002	504.995081704445	1827
5	6020	506.995081704445	1828
5	6034	508.995081704445	1829
5	6035	508.995081704445	1830
5	6071	510.995081704445	1831
5	6081	512.995081704445	1832
5	6090	513.495081704445	1833
5	6120	514.995081704445	1834
5	6133	516.995081704445	1835
5	6142	517.995081704445	1836
5	6171	518.995081704445	1837
5	6184	520.995081704445	1838
5	6195	522.495081704445	1839
5	6216	522.995081704445	1840
5	6234	524.995081704445	1841
5	6250	526.995081704445	1842
5	6251	526.995081704445	1843
5	6285	528.995081704445	1844
5	6297	530.995081704445	1845
5	6307	531.495081704445	1846
5	6336	532.995081704445	1847
5	6347	534.995081704445	1848
5	6358	535.995081704445	1849
5	6388	536.995081704445	1850
5	6398	538.995081704445	1851
5	6410	540.495081704445	1852
5	6433	540.995081704445	1853
5	6449	542.995081704445	1854
5	6464	544.995081704445	1855
5	6465	544.995081704445	1856
5	6501	546.995081704445	1857
5	6511	548.995081704445	1858
5	6521	549.495081704445	1859
5	6552	550.995081704445	1860
5	6562	552.995081704445	1861
5	6572	553.995081704445	1862
5	6602	554.995081704445	1863
5	6614	556.995081704445	1864
5	6624	558.495081704445	1865
5	6647	558.995081704445	1866
5	6665	560.995081704445	1867
5	6679	562.995081704445	1868
5	6680	562.995081704445	1869
5	6715	564.995081704445	1870
5	6727	566.995081704445	1871
5	6736	567.495081704445	1872
5	6766	568.995081704445	1873
5	6778	570.995081704445	1874
5	6788	571.995081704445	1875
5	6817	572.995081704445	1876
5	6828	574.995081704445	1877
5	6840	576.495081704445	1878
5	6863	576.995081704445	1879
5	6879	578.995081704445	1880
5	6895	580.995081704445	1881
5	6896	580.995081704445	1882
5	6930	582.995081704445	1883
5	6941	584.995081704445	1884
5	6952	585.495081704445	1885
5	6982	586.995081704445	1886
5	6992	588.995081704445	1887
5	7002	589.995081704445	1888
5	7033	590.995081704445	1889
5	7043	592.995081704445	1890
5	7054	594.495081704445	1891
5	7077	594.995081704445	1892
5	7095	596.995081704445	1893
5	7109	598.995081704445	1894
5	7110	598.995081704445	1895
5	7146	600.995081704445	1896
5	7156	602.995081704445	1897
5	7166	603.495081704445	1898
5	7196	604.995081704445	1899
5	7208	606.995081704445	1900
5	7217	607.995081704445	1901
5	7247	608.995081704445	1902
5	7259	610.995081704445	1903
5	7269	612.495081704445	1904
5	7292	612.995081704445	1905
5	7309	614.995081704445	1906
5	7325	616.995081704445	1907
5	7326	616.995081704445	1908
5	7360	618.995081704445	1909
5	7372	620.995081704445	1910
5	7382	621.495081704445	1911
5	7411	622.995081704445	1912
5	7422	624.995081704445	1913
5	7433	625.995081704445	1914
5	7463	626.995081704445	1915
5	7473	628.995081704445	1916
5	7485	630.495081704445	1917
5	7508	630.995081704445	1918
5	7524	632.995081704445	1919
5	7539	634.995081704445	1920
5	7540	634.995081704445	1921
5	7576	636.995081704445	1922
5	7586	638.995081704445	1923
5	7596	639.495081704445	1924
5	7627	640.995081704445	1925
5	7637	642.995081704445	1926
5	7647	643.995081704445	1927
5	7677	644.995081704445	1928
5	7689	646.995081704445	1929
5	7699	648.495081704445	1930
5	7722	648.995081704445	1931
5	7740	650.995081704445	1932
5	7754	652.995081704445	1933
5	7755	652.995081704445	1934
5	7790	654.995081704445	1935
5	7802	656.995081704445	1936
5	7811	657.495081704445	1937
5	7841	658.995081704445	1938
5	7853	660.995081704445	1939
5	7863	661.995081704445	1940
5	7892	662.995081704445	1941
5	7903	664.995081704445	1942
5	7915	666.495081704445	1943
5	7938	666.995081704445	1944
5	7954	668.995081704445	1945
5	7970	670.995081704445	1946
5	7971	670.995081704445	1947
5	8005	672.995081704445	1948
5	8016	674.995081704445	1949
5	8027	675.495081704445	1950
5	8057	676.995081704445	1951
5	8067	678.995081704445	1952
5	8077	679.995081704445	1953
5	8108	680.995081704445	1954
5	8118	682.995081704445	1955
5	8129	684.495081704445	1956
5	8152	684.995081704445	1957
5	8170	686.995081704445	1958
5	8184	688.995081704445	1959
5	8185	688.995081704445	1960
5	8221	690.995081704445	1961
5	8231	692.995081704445	1962
5	8241	693.495081704445	1963
5	8271	694.995081704445	1964
5	8283	696.995081704445	1965
5	8292	697.995081704445	1966
5	8322	698.995081704445	1967
5	8334	700.995081704445	1968
5	8344	702.495081704445	1969
5	8367	702.995081704445	1970
5	8384	704.995081704445	1971
5	8400	706.995081704445	1972
5	8401	706.995081704445	1973
5	8435	708.995081704445	1974
5	8447	710.995081704445	1975
5	8457	711.495081704445	1976
5	8486	712.995081704445	1977
5	8497	714.995081704445	1978
5	8508	715.995081704445	1979
5	8538	716.995081704445	1980
5	8548	718.995081704445	1981
5	8560	720.495081704445	1982
5	8583	720.995081704445	1983
5	8599	722.995081704445	1984
5	8614	724.995081704445	1985
5	8615	724.995081704445	1986
5	8651	726.995081704445	1987
5	8661	728.995081704445	1988
5	8671	729.495081704445	1989
5	8702	730.995081704445	1990
5	8712	732.995081704445	1991
5	8722	733.995081704445	1992
5	8752	734.995081704445	1993
5	8764	736.995081704445	1994
5	8774	738.495081704445	1995
5	8797	738.995081704445	1996
5	8815	740.995081704445	1997
5	8829	742.995081704445	1998
5	8830	742.995081704445	1999
5	8865	744.995081704445	2000
5	8877	746.995081704445	2001
5	8886	747.495081704445	2002
5	8916	748.995081704445	2003
5	8928	750.995081704445	2004
5	8938	751.995081704445	2005
5	8967	752.995081704445	2006
5	8978	754.995081704445	2007
5	8990	756.495081704445	2008
5	9013	756.995081704445	2009
5	9029	758.995081704445	2010
5	9045	760.995081704445	2011
5	9046	760.995081704445	2012
5	9080	762.995081704445	2013
5	9091	764.995081704445	2014
5	9102	765.495081704445	2015
5	9132	766.995081704445	2016
5	9142	768.995081704445	2017
5	9152	769.995081704445	2018
5	9183	770.995081704445	2019
5	9193	772.995081704445	2020
5	9204	774.495081704445	2021
5	9227	774.995081704445	2022
5	9245	776.995081704445	2023
5	9257	778.995081704445	2024
5	9258	778.995081704445	2025
5	9295	780.995081704445	2026
5	9307	782.995081704445	2027
5	9316	783.495081704445	2028
5	9346	784.995081704445	2029
5	9358	786.995081704445	2030
5	9368	787.995081704445	2031
5	9397	788.995081704445	2032
5	9409	790.995081704445	2033
5	9420	792.495081704445	2034
5	9443	792.995081704445	2035
5	9459	794.995081704445	2036
5	9475	796.995081704445	2037
5	9476	796.995081704445	2038
5	9510	798.995081704445	2039
5	9522	802.814503362605	2040
5	9522	802.814503362605	2041
5	9522	802.814503362605	2042
5	9522	802.814503362605	2043
5	9527	802.917481193234	2044
5	9527	802.917481193234	2045
5	9527	802.917481193234	2046
5	9527	802.917481193234	2047
5	9554	804.917481193234	2048
5	9554	804.917481193234	2049
5	9554	804.917481193234	2050
5	9554	804.917481193234	2051
5	9583	806.917481193234	2052
5	9583	806.917481193234	2053
5	9583	806.917481193234	2054
5	9583	806.917481193234	2055
5	9593	807.417481193234	2056
5	9593	807.417481193234	2057
5	9593	807.417481193234	2058
5	9593	807.417481193234	2059
5	9598	807.520459023863	2060
5	9598	807.520459023863	2061
5	9598	807.520459023863	2062
5	9598	807.520459023863	2063
5	9618	808.917481193234	2064
5	9618	808.917481193234	2065
5	9618	808.917481193234	2066
5	9618	808.917481193234	2067
5	9630	810.917481193234	2068
5	9630	810.917481193234	2069
5	9630	810.917481193234	2070
5	9630	810.917481193234	2071
5	9640	811.917481193234	2072
5	9640	811.917481193234	2073
5	9640	811.917481193234	2074
5	9640	811.917481193234	2075
5	9647	812.020459023863	2076
5	9647	812.020459023863	2077
5	9647	812.020459023863	2078
5	9647	812.020459023863	2079
5	9666	812.917481193234	2080
5	9666	812.917481193234	2081
5	9666	812.917481193234	2082
5	9666	812.917481193234	2083
5	9680	814.917481193234	2084
5	9680	814.917481193234	2085
5	9680	814.917481193234	2086
5	9680	814.917481193234	2087
5	9692	816.417481193234	2088
5	9692	816.417481193234	2089
5	9692	816.417481193234	2090
5	9692	816.417481193234	2091
5	9697	816.520459023863	2092
5	9697	816.520459023863	2093
5	9697	816.520459023863	2094
5	9697	816.520459023863	2095
5	9697	816.520459023863	2096
5	9713	816.917481193234	2097
5	9713	816.917481193234	2098
5	9713	816.917481193234	2099
5	9713	816.917481193234	2100
5	9731	818.917481193234	2101
5	9731	818.917481193234	2102
5	9731	818.917481193234	2103
5	9731	818.917481193234	2104
5	9742	820.917481193234	2105
5	9742	820.917481193234	2106
5	9742	820.917481193234	2107
5	9742	820.917481193234	2108
5	9743	820.917481193234	2109
5	9743	820.917481193234	2110
5	9743	820.917481193234	2111
5	9743	820.917481193234	2112
5	9753	821.020459023863	2113
5	9753	821.020459023863	2114
5	9753	821.020459023863	2115
5	9753	821.020459023863	2116
5	9753	821.020459023863	2117
5	9782	822.917481193234	2118
5	9782	822.917481193234	2119
5	9782	822.917481193234	2120
5	9782	822.917481193234	2121
5	9793	824.917481193234	2122
5	9793	824.917481193234	2123
5	9793	824.917481193234	2124
5	9793	824.917481193234	2125
5	9803	825.417481193234	2126
5	9803	825.417481193234	2127
5	9803	825.417481193234	2128
5	9803	825.417481193234	2129
5	9808	825.520459023863	2130
5	9808	825.520459023863	2131
5	9808	825.520459023863	2132
5	9808	825.520459023863	2133
5	9808	825.520459023863	2134
5	9833	826.917481193234	2135
5	9833	826.917481193234	2136
5	9833	826.917481193234	2137
5	9833	826.917481193234	2138
5	9843	828.917481193234	2139
5	9843	828.917481193234	2140
5	9843	828.917481193234	2141
5	9843	828.917481193234	2142
5	9854	829.917481193234	2143
5	9854	829.917481193234	2144
5	9854	829.917481193234	2145
5	9854	829.917481193234	2146
5	9860	830.020459023863	2147
5	9860	830.020459023863	2148
5	9860	830.020459023863	2149
5	9860	830.020459023863	2150
5	9860	830.020459023863	2151
5	9884	830.917481193234	2152
5	9884	830.917481193234	2153
5	9884	830.917481193234	2154
5	9884	830.917481193234	2155
5	9895	832.917481193234	2156
5	9895	832.917481193234	2157
5	9895	832.917481193234	2158
5	9895	832.917481193234	2159
5	9906	834.417481193234	2160
5	9906	834.417481193234	2161
5	9906	834.417481193234	2162
5	9906	834.417481193234	2163
5	9911	834.520459023863	2164
5	9911	834.520459023863	2165
5	9911	834.520459023863	2166
5	9911	834.520459023863	2167
5	9911	834.520459023863	2168
5	9928	834.917481193234	2169
5	9928	834.917481193234	2170
5	9928	834.917481193234	2171
5	9928	834.917481193234	2172
5	9946	836.917481193234	2173
5	9946	836.917481193234	2174
5	9946	836.917481193234	2175
5	9946	836.917481193234	2176
5	9956	838.917481193234	2177
5	9956	838.917481193234	2178
5	9956	838.917481193234	2179
5	9956	838.917481193234	2180
5	9957	838.917481193234	2181
5	9957	838.917481193234	2182
5	9957	838.917481193234	2183
5	9957	838.917481193234	2184
5	9968	839.020459023863	2185
5	9968	839.020459023863	2186
5	9968	839.020459023863	2187
5	9968	839.020459023863	2188
5	9968	839.020459023863	2189
5	9997	840.917481193234	2190
5	9997	840.917481193234	2191
5	9997	840.917481193234	2192
5	9997	840.917481193234	2193
5	10008	842.917481193234	2194
5	10008	842.917481193234	2195
5	10008	842.917481193234	2196
5	10008	842.917481193234	2197
5	10017	843.417481193234	2198
5	10017	843.417481193234	2199
5	10017	843.417481193234	2200
5	10017	843.417481193234	2201
5	10022	843.520459023863	2202
5	10022	843.520459023863	2203
5	10022	843.520459023863	2204
5	10022	843.520459023863	2205
5	10022	843.520459023863	2206
5	10048	844.917481193234	2207
5	10048	844.917481193234	2208
5	10048	844.917481193234	2209
5	10048	844.917481193234	2210
5	10059	846.917481193234	2211
5	10059	846.917481193234	2212
5	10059	846.917481193234	2213
5	10059	846.917481193234	2214
5	10069	847.917481193234	2215
5	10069	847.917481193234	2216
5	10069	847.917481193234	2217
5	10069	847.917481193234	2218
5	10074	848.020459023863	2219
5	10074	848.020459023863	2220
5	10074	848.020459023863	2221
5	10074	848.020459023863	2222
5	10074	848.020459023863	2223
5	10098	848.917481193234	2224
5	10098	848.917481193234	2225
5	10098	848.917481193234	2226
5	10098	848.917481193234	2227
5	10110	850.917481193234	2228
5	10110	850.917481193234	2229
5	10110	850.917481193234	2230
5	10110	850.917481193234	2231
5	10121	852.417481193234	2232
5	10121	852.417481193234	2233
5	10121	852.417481193234	2234
5	10121	852.417481193234	2235
5	10126	852.520459023863	2236
5	10126	852.520459023863	2237
5	10126	852.520459023863	2238
5	10126	852.520459023863	2239
5	10126	852.520459023863	2240
5	10143	852.917481193234	2241
5	10143	852.917481193234	2242
5	10143	852.917481193234	2243
5	10143	852.917481193234	2244
5	10161	854.917481193234	2245
5	10161	854.917481193234	2246
5	10161	854.917481193234	2247
5	10161	854.917481193234	2248
5	10172	856.917481193234	2249
5	10172	856.917481193234	2250
5	10172	856.917481193234	2251
5	10172	856.917481193234	2252
5	10173	856.917481193234	2253
5	10173	856.917481193234	2254
5	10173	856.917481193234	2255
5	10173	856.917481193234	2256
5	10183	857.020459023863	2257
5	10183	857.020459023863	2258
5	10183	857.020459023863	2259
5	10183	857.020459023863	2260
5	10183	857.020459023863	2261
5	10211	858.917481193234	2262
5	10211	858.917481193234	2263
5	10211	858.917481193234	2264
5	10211	858.917481193234	2265
5	10223	860.917481193234	2266
5	10223	860.917481193234	2267
5	10223	860.917481193234	2268
5	10223	860.917481193234	2269
5	10233	861.417481193234	2270
5	10233	861.417481193234	2271
5	10233	861.417481193234	2272
5	10233	861.417481193234	2273
5	10238	861.520459023863	2274
5	10238	861.520459023863	2275
5	10238	861.520459023863	2276
5	10238	861.520459023863	2277
5	10238	861.520459023863	2278
5	10263	862.917481193234	2279
5	10263	862.917481193234	2280
5	10263	862.917481193234	2281
5	10263	862.917481193234	2282
5	10274	864.917481193234	2283
5	10274	864.917481193234	2284
5	10274	864.917481193234	2285
5	10274	864.917481193234	2286
5	10284	865.917481193234	2287
5	10284	865.917481193234	2288
5	10284	865.917481193234	2289
5	10284	865.917481193234	2290
5	10290	866.020459023863	2291
5	10290	866.020459023863	2292
5	10290	866.020459023863	2293
5	10290	866.020459023863	2294
5	10290	866.020459023863	2295
5	10314	866.917481193234	2296
5	10314	866.917481193234	2297
5	10314	866.917481193234	2298
5	10314	866.917481193234	2299
5	10324	868.917481193234	2300
5	10324	868.917481193234	2301
5	10324	868.917481193234	2302
5	10324	868.917481193234	2303
5	10357	873.81942165816	2304
5	10357	873.81942165816	2305
5	10357	873.81942165816	2306
5	10357	873.81942165816	2307
5	10358	873.822231375244	2308
5	10372	873.943806619735	2309
5	10372	873.943806619735	2310
5	10372	873.943806619735	2311
5	10372	873.943806619735	2312
5	10381	874.012517447247	2313
5	10438	875.943806619735	2314
5	10438	875.943806619735	2315
5	10438	875.943806619735	2316
5	10438	875.943806619735	2317
5	10448	876.012517447247	2318
5	10503	877.943806619735	2319
5	10503	877.943806619735	2320
5	10503	877.943806619735	2321
5	10503	877.943806619735	2322
5	10511	878.012517447247	2323
5	10586	879.943806619735	2324
5	10586	879.943806619735	2325
5	10586	879.943806619735	2326
5	10586	879.943806619735	2327
5	10596	880.012517447247	2328
5	10684	881.943806619735	2329
5	10684	881.943806619735	2330
5	10684	881.943806619735	2331
5	10684	881.943806619735	2332
5	10691	882.012517447247	2333
5	10775	883.943806619735	2334
5	10775	883.943806619735	2335
5	10775	883.943806619735	2336
5	10775	883.943806619735	2337
5	10788	884.012517447247	2338
5	10875	885.943806619735	2339
5	10875	885.943806619735	2340
5	10875	885.943806619735	2341
5	10875	885.943806619735	2342
5	10883	886.012517447247	2343
5	10968	887.943806619735	2344
5	10968	887.943806619735	2345
5	10968	887.943806619735	2346
5	10968	887.943806619735	2347
5	10975	888.012517447247	2348
5	11061	889.943806619735	2349
5	11061	889.943806619735	2350
5	11061	889.943806619735	2351
5	11061	889.943806619735	2352
5	11072	890.012517447247	2353
5	11159	891.943806619735	2354
5	11159	891.943806619735	2355
5	11159	891.943806619735	2356
5	11159	891.943806619735	2357
5	11169	892.012517447247	2358
5	11253	893.943806619735	2359
5	11253	893.943806619735	2360
5	11253	893.943806619735	2361
5	11253	893.943806619735	2362
5	11262	894.012517447247	2363
5	11348	895.943806619735	2364
5	11348	895.943806619735	2365
5	11348	895.943806619735	2366
5	11348	895.943806619735	2367
5	11358	896.012517447247	2368
5	11443	897.943806619735	2369
5	11443	897.943806619735	2370
5	11443	897.943806619735	2371
5	11443	897.943806619735	2372
5	11451	898.012517447247	2373
5	11536	899.943806619735	2374
5	11536	899.943806619735	2375
5	11536	899.943806619735	2376
5	11536	899.943806619735	2377
5	11547	900.012517447247	2378
5	11633	901.943806619735	2379
5	11633	901.943806619735	2380
5	11633	901.943806619735	2381
5	11633	901.943806619735	2382
5	11643	902.012517447247	2383
5	11728	903.943806619735	2384
5	11728	903.943806619735	2385
5	11728	903.943806619735	2386
5	11728	903.943806619735	2387
5	11737	904.012517447247	2388
5	11825	905.943806619735	2389
5	11825	905.943806619735	2390
5	11825	905.943806619735	2391
5	11825	905.943806619735	2392
5	11833	906.012517447247	2393
5	11919	907.943806619735	2394
5	11919	907.943806619735	2395
5	11919	907.943806619735	2396
5	11919	907.943806619735	2397
5	11929	908.012517447247	2398
5	12014	909.943806619735	2399
5	12014	909.943806619735	2400
5	12014	909.943806619735	2401
5	12014	909.943806619735	2402
5	12024	910.012517447247	2403
5	12110	911.943806619735	2404
5	12110	911.943806619735	2405
5	12110	911.943806619735	2406
5	12110	911.943806619735	2407
5	12119	912.012517447247	2408
5	12202	913.943806619735	2409
5	12202	913.943806619735	2410
5	12202	913.943806619735	2411
5	12202	913.943806619735	2412
5	12213	914.012517447247	2413
5	12299	915.943806619735	2414
5	12299	915.943806619735	2415
5	12299	915.943806619735	2416
5	12299	915.943806619735	2417
5	12309	916.012517447247	2418
5	12393	917.943806619735	2419
5	12393	917.943806619735	2420
5	12393	917.943806619735	2421
5	12393	917.943806619735	2422
5	12401	918.012517447247	2423
5	12488	919.943806619735	2424
5	12488	919.943806619735	2425
5	12488	919.943806619735	2426
5	12488	919.943806619735	2427
5	12500	920.012517447247	2428
5	12584	921.943806619735	2429
5	12584	921.943806619735	2430
5	12584	921.943806619735	2431
5	12584	921.943806619735	2432
5	12592	922.012517447247	2433
5	12679	923.943806619735	2434
5	12679	923.943806619735	2435
5	12679	923.943806619735	2436
5	12679	923.943806619735	2437
5	12689	924.012517447247	2438
5	12774	925.943806619735	2439
5	12774	925.943806619735	2440
5	12774	925.943806619735	2441
5	12774	925.943806619735	2442
5	12784	926.012517447247	2443
5	12872	927.943806619735	2444
5	12872	927.943806619735	2445
5	12872	927.943806619735	2446
5	12872	927.943806619735	2447
5	12878	928.012517447247	2448
5	12964	929.943806619735	2449
5	12964	929.943806619735	2450
5	12964	929.943806619735	2451
5	12964	929.943806619735	2452
5	12976	930.012517447247	2453
5	13059	931.943806619735	2454
5	13059	931.943806619735	2455
5	13059	931.943806619735	2456
5	13059	931.943806619735	2457
5	13068	932.012517447247	2458
5	13156	933.943806619735	2459
5	13156	933.943806619735	2460
5	13156	933.943806619735	2461
5	13156	933.943806619735	2462
5	13165	934.012517447247	2463
5	13250	935.943806619735	2464
5	13250	935.943806619735	2465
5	13250	935.943806619735	2466
5	13250	935.943806619735	2467
5	13258	936.012517447247	2468
5	13343	937.943806619735	2469
5	13343	937.943806619735	2470
5	13343	937.943806619735	2471
5	13343	937.943806619735	2472
5	13355	938.012517447247	2473
5	13439	939.943806619735	2474
5	13439	939.943806619735	2475
5	13439	939.943806619735	2476
5	13439	939.943806619735	2477
5	13448	940.012517447247	2478
5	13535	941.943806619735	2479
5	13535	941.943806619735	2480
5	13535	941.943806619735	2481
5	13535	941.943806619735	2482
5	13546	942.012517447247	2483
5	13630	943.943806619735	2484
5	13630	943.943806619735	2485
5	13630	943.943806619735	2486
5	13630	943.943806619735	2487
5	13638	944.012517447247	2488
5	13725	945.943806619735	2489
5	13725	945.943806619735	2490
5	13725	945.943806619735	2491
5	13725	945.943806619735	2492
5	13736	946.012517447247	2493
5	13820	947.943806619735	2494
5	13820	947.943806619735	2495
5	13820	947.943806619735	2496
5	13820	947.943806619735	2497
5	13830	948.012517447247	2498
5	13914	949.943806619735	2499
5	13914	949.943806619735	2500
5	13914	949.943806619735	2501
5	13914	949.943806619735	2502
5	13924	950.012517447247	2503
5	14010	951.943806619735	2504
5	14010	951.943806619735	2505
5	14010	951.943806619735	2506
5	14010	951.943806619735	2507
5	14022	952.012517447247	2508
5	14104	953.943806619735	2509
5	14104	953.943806619735	2510
5	14104	953.943806619735	2511
5	14104	953.943806619735	2512
5	14114	954.012517447247	2513
5	14202	955.943806619735	2514
5	14202	955.943806619735	2515
5	14202	955.943806619735	2516
5	14202	955.943806619735	2517
5	14210	956.012517447247	2518
5	14297	957.943806619735	2519
5	14297	957.943806619735	2520
5	14297	957.943806619735	2521
5	14297	957.943806619735	2522
5	14304	958.012517447247	2523
5	14391	959.943806619735	2524
5	14391	959.943806619735	2525
5	14391	959.943806619735	2526
5	14391	959.943806619735	2527
5	14402	960.012517447247	2528
5	14484	961.943806619735	2529
5	14484	961.943806619735	2530
5	14484	961.943806619735	2531
5	14484	961.943806619735	2532
5	14496	962.012517447247	2533
5	14580	963.943806619735	2534
5	14580	963.943806619735	2535
5	14580	963.943806619735	2536
[...]
33	21477	1480.89345653626	1642
33	21477	1480.89345653626	1643
33	21477	1480.89345653626	1644
33	21488	1482.89345653626	1645
33	21488	1482.89345653626	1646
33	21488	1482.89345653626	1647
33	21488	1482.89345653626	1648
33	21497	1483.89345653626	1649
33	21497	1483.89345653626	1650
33	21497	1483.89345653626	1651
33	21497	1483.89345653626	1652
33	21528	1484.89345653626	1653
33	21528	1484.89345653626	1654
33	21528	1484.89345653626	1655
33	21528	1484.89345653626	1656
33	21539	1486.89345653626	1657
33	21539	1486.89345653626	1658
33	21539	1486.89345653626	1659
33	21539	1486.89345653626	1660
33	21549	1488.39345653626	1661
33	21549	1488.39345653626	1662
33	21549	1488.39345653626	1663
33	21549	1488.39345653626	1664
33	21569	1488.89345653626	1665
33	21569	1488.89345653626	1666
33	21569	1488.89345653626	1667
33	21569	1488.89345653626	1668
33	21590	1490.89345653626	1669
33	21590	1490.89345653626	1670
33	21590	1490.89345653626	1671
33	21590	1490.89345653626	1672
33	21601	1492.89345653626	1673
33	21601	1492.89345653626	1674
33	21601	1492.89345653626	1675
33	21601	1492.89345653626	1676
33	21602	1492.89345653626	1677
33	21602	1492.89345653626	1678
33	21602	1492.89345653626	1679
33	21602	1492.89345653626	1680
33	21641	1494.89345653626	1681
33	21641	1494.89345653626	1682
33	21641	1494.89345653626	1683
33	21641	1494.89345653626	1684
33	21652	1496.89345653626	1685
33	21652	1496.89345653626	1686
33	21652	1496.89345653626	1687
33	21652	1496.89345653626	1688
33	21662	1497.39345653626	1689
33	21662	1497.39345653626	1690
33	21662	1497.39345653626	1691
33	21662	1497.39345653626	1692
33	21691	1498.89345653626	1693
33	21691	1498.89345653626	1694
33	21691	1498.89345653626	1695
33	21691	1498.89345653626	1696
33	21703	1500.89345653626	1697
33	21703	1500.89345653626	1698
33	21703	1500.89345653626	1699
33	21703	1500.89345653626	1700
33	21713	1501.89345653626	1701
33	21713	1501.89345653626	1702
33	21713	1501.89345653626	1703
33	21713	1501.89345653626	1704
33	21743	1502.89345653626	1705
33	21743	1502.89345653626	1706
33	21743	1502.89345653626	1707
33	21743	1502.89345653626	1708
33	21754	1504.89345653626	1709
33	21754	1504.89345653626	1710
33	21754	1504.89345653626	1711
33	21754	1504.89345653626	1712
33	21765	1506.39345653626	1713
33	21765	1506.39345653626	1714
33	21765	1506.39345653626	1715
33	21765	1506.39345653626	1716
33	21785	1506.89345653626	1717
33	21785	1506.89345653626	1718
33	21785	1506.89345653626	1719
33	21785	1506.89345653626	1720
33	21804	1508.89345653626	1721
33	21804	1508.89345653626	1722
33	21804	1508.89345653626	1723
33	21804	1508.89345653626	1724
33	21816	1510.89345653626	1725
33	21816	1510.89345653626	1726
33	21816	1510.89345653626	1727
33	21816	1510.89345653626	1728
33	21817	1510.89345653626	1729
33	21817	1510.89345653626	1730
33	21817	1510.89345653626	1731
33	21817	1510.89345653626	1732
33	21856	1512.89345653626	1733
33	21856	1512.89345653626	1734
33	21856	1512.89345653626	1735
33	21856	1512.89345653626	1736
33	21867	1514.89345653626	1737
33	21867	1514.89345653626	1738
33	21867	1514.89345653626	1739
33	21867	1514.89345653626	1740
33	21877	1515.39345653626	1741
33	21877	1515.39345653626	1742
33	21877	1515.39345653626	1743
33	21877	1515.39345653626	1744
33	21907	1516.89345653626	1745
33	21907	1516.89345653626	1746
33	21907	1516.89345653626	1747
33	21907	1516.89345653626	1748
33	21917	1518.89345653626	1749
33	21917	1518.89345653626	1750
33	21917	1518.89345653626	1751
33	21917	1518.89345653626	1752
33	21928	1519.89345653626	1753
33	21928	1519.89345653626	1754
33	21928	1519.89345653626	1755
33	21928	1519.89345653626	1756
33	21958	1520.89345653626	1757
33	21958	1520.89345653626	1758
33	21958	1520.89345653626	1759
33	21958	1520.89345653626	1760
33	21969	1522.89345653626	1761
33	21969	1522.89345653626	1762
33	21969	1522.89345653626	1763
33	21969	1522.89345653626	1764
33	21980	1524.39345653626	1765
33	21980	1524.39345653626	1766
33	21980	1524.39345653626	1767
33	21980	1524.39345653626	1768
33	22000	1524.89345653626	1769
33	22000	1524.89345653626	1770
33	22000	1524.89345653626	1771
33	22000	1524.89345653626	1772
33	22020	1526.89345653626	1773
33	22020	1526.89345653626	1774
33	22020	1526.89345653626	1775
33	22020	1526.89345653626	1776
33	22030	1528.89345653626	1777
33	22030	1528.89345653626	1778
33	22030	1528.89345653626	1779
33	22030	1528.89345653626	1780
33	22031	1528.89345653626	1781
33	22031	1528.89345653626	1782
33	22031	1528.89345653626	1783
33	22031	1528.89345653626	1784
33	22071	1530.89345653626	1785
33	22071	1530.89345653626	1786
33	22071	1530.89345653626	1787
33	22071	1530.89345653626	1788
33	22082	1532.89345653626	1789
33	22082	1532.89345653626	1790
33	22082	1532.89345653626	1791
33	22082	1532.89345653626	1792
33	22091	1533.39345653626	1793
33	22091	1533.39345653626	1794
33	22091	1533.39345653626	1795
33	22091	1533.39345653626	1796
33	22122	1534.89345653626	1797
33	22122	1534.89345653626	1798
33	22122	1534.89345653626	1799
33	22122	1534.89345653626	1800
33	22133	1536.89345653626	1801
33	22133	1536.89345653626	1802
33	22133	1536.89345653626	1803
33	22133	1536.89345653626	1804
33	22143	1537.89345653626	1805
33	22143	1537.89345653626	1806
33	22143	1537.89345653626	1807
33	22143	1537.89345653626	1808
33	22172	1538.89345653626	1809
33	22172	1538.89345653626	1810
33	22172	1538.89345653626	1811
33	22172	1538.89345653626	1812
33	22184	1540.89345653626	1813
33	22184	1540.89345653626	1814
33	22184	1540.89345653626	1815
33	22184	1540.89345653626	1816
33	30314	2223.888538240705	1817
33	30314	2223.888538240705	1818
33	30314	2223.888538240705	1819
33	30314	2223.888538240705	1820
33	30340	2225.888538240705	1821
33	30340	2225.888538240705	1822
33	30340	2225.888538240705	1823
33	30340	2225.888538240705	1824
33	30355	2227.888538240705	1825
33	30355	2227.888538240705	1826
33	30355	2227.888538240705	1827
33	30355	2227.888538240705	1828
33	30368	2228.388538240705	1829
33	30368	2228.388538240705	1830
33	30368	2228.388538240705	1831
33	30368	2228.388538240705	1832
33	30389	2229.888538240705	1833
33	30389	2229.888538240705	1834
33	30389	2229.888538240705	1835
33	30389	2229.888538240705	1836
33	30407	2231.888538240705	1837
33	30407	2231.888538240705	1838
33	30407	2231.888538240705	1839
33	30407	2231.888538240705	1840
33	30426	2232.888538240705	1841
33	30426	2232.888538240705	1842
33	30426	2232.888538240705	1843
33	30426	2232.888538240705	1844
33	30454	2233.888538240705	1845
33	30454	2233.888538240705	1846
33	30454	2233.888538240705	1847
33	30454	2233.888538240705	1848
33	30466	2235.888538240705	1849
33	30466	2235.888538240705	1850
33	30466	2235.888538240705	1851
33	30466	2235.888538240705	1852
33	30477	2237.388538240705	1853
33	30477	2237.388538240705	1854
33	30477	2237.388538240705	1855
33	30477	2237.388538240705	1856
33	30495	2237.888538240705	1857
33	30495	2237.888538240705	1858
33	30495	2237.888538240705	1859
33	30495	2237.888538240705	1860
33	30516	2239.888538240705	1861
33	30516	2239.888538240705	1862
33	30516	2239.888538240705	1863
33	30516	2239.888538240705	1864
33	30527	2241.888538240705	1865
33	30527	2241.888538240705	1866
33	30527	2241.888538240705	1867
33	30527	2241.888538240705	1868
33	30528	2241.888538240705	1869
33	30528	2241.888538240705	1870
33	30528	2241.888538240705	1871
33	30528	2241.888538240705	1872
34	5383	454.995081704445	1
34	5408	456.995081704445	2
34	5436	458.995081704445	3
34	5446	459.495081704445	4
34	5477	460.995081704445	5
34	5488	462.995081704445	6
34	5497	463.995081704445	7
34	5527	464.995081704445	8
34	5539	466.995081704445	9
34	5549	468.495081704445	10
34	5572	468.995081704445	11
34	5590	470.995081704445	12
34	5605	472.995081704445	13
34	5606	472.995081704445	14
34	5640	474.995081704445	15
34	5652	476.995081704445	16
34	5662	477.495081704445	17
34	5691	478.995081704445	18
34	5703	480.995081704445	19
34	5713	481.995081704445	20
34	5743	482.995081704445	21
34	5753	484.995081704445	22
34	5765	486.495081704445	23
34	5788	486.995081704445	24
34	5804	488.995081704445	25
34	5820	490.995081704445	26
34	5821	490.995081704445	27
34	5856	492.995081704445	28
34	5866	494.995081704445	29
34	5877	495.495081704445	30
34	5907	496.995081704445	31
34	5917	498.995081704445	32
34	5927	499.995081704445	33
34	5958	500.995081704445	34
34	5969	502.995081704445	35
34	5979	504.495081704445	36
34	6002	504.995081704445	37
34	6020	506.995081704445	38
34	6034	508.995081704445	39
34	6035	508.995081704445	40
34	6071	510.995081704445	41
34	6081	512.995081704445	42
34	6090	513.495081704445	43
34	6120	514.995081704445	44
34	6133	516.995081704445	45
34	6142	517.995081704445	46
34	6171	518.995081704445	47
34	6184	520.995081704445	48
34	6195	522.495081704445	49
34	6216	522.995081704445	50
34	6234	524.995081704445	51
34	6250	526.995081704445	52
34	6251	526.995081704445	53
34	6285	528.995081704445	54
34	6297	530.995081704445	55
34	6307	531.495081704445	56
34	6336	532.995081704445	57
34	6347	534.995081704445	58
34	6358	535.995081704445	59
34	6388	536.995081704445	60
34	6398	538.995081704445	61
34	6410	540.495081704445	62
34	6433	540.995081704445	63
34	6449	542.995081704445	64
34	6464	544.995081704445	65
34	6465	544.995081704445	66
34	6501	546.995081704445	67
34	6511	548.995081704445	68
34	6521	549.495081704445	69
34	6552	550.995081704445	70
34	6562	552.995081704445	71
34	6572	553.995081704445	72
34	6602	554.995081704445	73
34	6614	556.995081704445	74
34	6624	558.495081704445	75
34	6647	558.995081704445	76
34	6665	560.995081704445	77
34	6679	562.995081704445	78
34	6680	562.995081704445	79
34	6715	564.995081704445	80
34	6727	566.995081704445	81
34	6736	567.495081704445	82
34	6766	568.995081704445	83
34	6778	570.995081704445	84
34	6788	571.995081704445	85
34	6817	572.995081704445	86
34	6828	574.995081704445	87
34	6840	576.495081704445	88
34	6863	576.995081704445	89
34	6879	578.995081704445	90
34	6895	580.995081704445	91
34	6896	580.995081704445	92
34	6930	582.995081704445	93
34	6941	584.995081704445	94
34	6952	585.495081704445	95
34	6982	586.995081704445	96
34	6992	588.995081704445	97
34	7002	589.995081704445	98
34	7033	590.995081704445	99
34	7043	592.995081704445	100
34	7054	594.495081704445	101
34	7077	594.995081704445	102
34	7095	596.995081704445	103
34	7109	598.995081704445	104
34	7110	598.995081704445	105
34	7146	600.995081704445	106
34	7156	602.995081704445	107
34	7166	603.495081704445	108
34	7196	604.995081704445	109
34	7208	606.995081704445	110
34	7217	607.995081704445	111
34	7247	608.995081704445	112
34	7259	610.995081704445	113
34	7269	612.495081704445	114
34	7292	612.995081704445	115
34	7309	614.995081704445	116
34	7325	616.995081704445	117
34	7326	616.995081704445	118
34	7360	618.995081704445	119
34	7372	620.995081704445	120
34	7382	621.495081704445	121
34	7411	622.995081704445	122
34	7422	624.995081704445	123
34	7433	625.995081704445	124
34	7463	626.995081704445	125
34	7473	628.995081704445	126
34	7485	630.495081704445	127
34	7508	630.995081704445	128
34	7524	632.995081704445	129
34	7539	634.995081704445	130
34	7540	634.995081704445	131
34	7576	636.995081704445	132
34	7586	638.995081704445	133
34	7596	639.495081704445	134
34	7627	640.995081704445	135
34	7637	642.995081704445	136
34	7647	643.995081704445	137
34	7677	644.995081704445	138
34	7689	646.995081704445	139
34	7699	648.495081704445	140
34	7722	648.995081704445	141
34	7740	650.995081704445	142
34	7754	652.995081704445	143
34	7755	652.995081704445	144
34	7790	654.995081704445	145
34	7802	656.995081704445	146
34	7811	657.495081704445	147
34	7841	658.995081704445	148
34	7853	660.995081704445	149
34	7863	661.995081704445	150
34	7892	662.995081704445	151
34	7903	664.995081704445	152
34	7915	666.495081704445	153
34	7938	666.995081704445	154
34	7954	668.995081704445	155
34	7970	670.995081704445	156
34	7971	670.995081704445	157
34	8005	672.995081704445	158
34	8016	674.995081704445	159
34	8027	675.495081704445	160
34	8057	676.995081704445	161
34	8067	678.995081704445	162
34	8077	679.995081704445	163
34	8108	680.995081704445	164
34	8118	682.995081704445	165
34	8129	684.495081704445	166
34	8152	684.995081704445	167
34	8170	686.995081704445	168
34	8184	688.995081704445	169
34	8185	688.995081704445	170
34	8221	690.995081704445	171
34	8231	692.995081704445	172
34	8241	693.495081704445	173
34	8271	694.995081704445	174
34	8283	696.995081704445	175
34	8292	697.995081704445	176
34	8322	698.995081704445	177
34	8334	700.995081704445	178
34	8344	702.495081704445	179
34	8367	702.995081704445	180
34	8384	704.995081704445	181
34	8400	706.995081704445	182
34	8401	706.995081704445	183
34	8435	708.995081704445	184
34	8447	710.995081704445	185
34	8457	711.495081704445	186
34	8486	712.995081704445	187
34	8497	714.995081704445	188
34	8508	715.995081704445	189
34	8538	716.995081704445	190
34	8548	718.995081704445	191
34	8560	720.495081704445	192
34	8583	720.995081704445	193
34	8599	722.995081704445	194
34	8614	724.995081704445	195
34	8615	724.995081704445	196
34	8651	726.995081704445	197
34	8661	728.995081704445	198
34	8671	729.495081704445	199
34	8702	730.995081704445	200
34	8712	732.995081704445	201
34	8722	733.995081704445	202
34	8752	734.995081704445	203
34	8764	736.995081704445	204
34	8774	738.495081704445	205
34	8797	738.995081704445	206
34	8815	740.995081704445	207
34	8829	742.995081704445	208
34	8830	742.995081704445	209
34	8865	744.995081704445	210
34	8877	746.995081704445	211
34	8886	747.495081704445	212
34	8916	748.995081704445	213
34	8928	750.995081704445	214
34	8938	751.995081704445	215
34	8967	752.995081704445	216
34	8978	754.995081704445	217
34	8990	756.495081704445	218
34	9013	756.995081704445	219
34	9029	758.995081704445	220
34	9045	760.995081704445	221
34	9046	760.995081704445	222
34	9080	762.995081704445	223
34	9091	764.995081704445	224
34	9102	765.495081704445	225
34	9132	766.995081704445	226
34	9142	768.995081704445	227
34	9152	769.995081704445	228
34	9183	770.995081704445	229
34	9193	772.995081704445	230
34	9204	774.495081704445	231
34	9227	774.995081704445	232
34	9245	776.995081704445	233
34	9257	778.995081704445	234
34	9258	778.995081704445	235
34	9295	780.995081704445	236
34	9307	782.995081704445	237
34	9316	783.495081704445	238
34	9346	784.995081704445	239
34	9358	786.995081704445	240
34	9368	787.995081704445	241
34	9397	788.995081704445	242
34	9409	790.995081704445	243
34	9420	792.495081704445	244
34	9443	792.995081704445	245
34	9459	794.995081704445	246
34	9475	796.995081704445	247
34	9476	796.995081704445	248
34	9510	798.995081704445	249
34	10381	874.012517447247	250
34	10448	876.012517447247	251
34	10511	878.012517447247	252
34	10596	880.012517447247	253
34	10691	882.012517447247	254
34	10788	884.012517447247	255
34	10883	886.012517447247	256
34	10975	888.012517447247	257
34	11072	890.012517447247	258
34	11169	892.012517447247	259
34	11262	894.012517447247	260
34	11358	896.012517447247	261
34	11451	898.012517447247	262
34	11547	900.012517447247	263
34	11643	902.012517447247	264
34	11737	904.012517447247	265
34	11833	906.012517447247	266
34	11929	908.012517447247	267
34	12024	910.012517447247	268
34	12119	912.012517447247	269
34	12213	914.012517447247	270
34	12309	916.012517447247	271
34	12401	918.012517447247	272
34	12500	920.012517447247	273
34	12592	922.012517447247	274
34	12689	924.012517447247	275
34	12784	926.012517447247	276
34	12878	928.012517447247	277
34	12976	930.012517447247	278
34	13068	932.012517447247	279
34	13165	934.012517447247	280
34	13258	936.012517447247	281
34	13355	938.012517447247	282
34	13448	940.012517447247	283
34	13546	942.012517447247	284
34	13638	944.012517447247	285
34	13736	946.012517447247	286
34	13830	948.012517447247	287
34	13924	950.012517447247	288
34	14022	952.012517447247	289
34	14114	954.012517447247	290
34	14210	956.012517447247	291
34	14304	958.012517447247	292
34	14402	960.012517447247	293
34	14496	962.012517447247	294
34	14591	964.012517447247	295
34	14685	966.012517447247	296
34	14778	968.012517447247	297
34	14877	970.012517447247	298
34	14972	972.012517447247	299
34	15067	974.012517447247	300
34	15159	976.012517447247	301
34	15256	978.012517447247	302
34	15352	980.012517447247	303
34	15447	982.012517447247	304
34	15540	984.012517447247	305
34	15634	986.012517447247	306
34	15732	988.012517447247	307
34	15826	990.012517447247	308
34	15922	992.012517447247	309
34	16017	994.012517447247	310
34	16114	996.012517447247	311
34	16206	998.012517447247	312
34	16304	1000.012517447247	313
34	16399	1002.012517447247	314
34	16490	1004.012517447247	315
34	20320	1385.007599151692	316
34	20321	1385.007599151692	317
34	20356	1387.007599151692	318
34	20367	1389.007599151692	319
34	20376	1389.507599151692	320
34	20407	1391.007599151692	321
34	20417	1393.007599151692	322
34	20428	1394.007599151692	323
34	20458	1395.007599151692	324
34	20469	1397.007599151692	325
34	20478	1398.507599151692	326
34	20503	1399.007599151692	327
34	20520	1401.007599151692	328
34	20534	1403.007599151692	329
34	20535	1403.007599151692	330
34	20571	1405.007599151692	331
34	20582	1407.007599151692	332
34	20591	1407.507599151692	333
34	20622	1409.007599151692	334
34	20633	1411.007599151692	335
34	20643	1412.007599151692	336
34	20672	1413.007599151692	337
34	20684	1415.007599151692	338
34	20694	1416.507599151692	339
34	20718	1417.007599151692	340
34	20735	1419.007599151692	341
34	20750	1421.007599151692	342
34	20751	1421.007599151692	343
34	20785	1423.007599151692	344
34	20797	1425.007599151692	345
34	20806	1425.507599151692	346
34	20837	1427.007599151692	347
34	20848	1429.007599151692	348
34	20858	1430.007599151692	349
34	20888	1431.007599151692	350
34	20898	1433.007599151692	351
34	20909	1434.507599151692	352
34	20933	1435.007599151692	353
34	20950	1437.007599151692	354
34	20965	1439.007599151692	355
34	20966	1439.007599151692	356
34	21001	1441.007599151692	357
34	21011	1443.007599151692	358
34	21020	1443.507599151692	359
34	21052	1445.007599151692	360
34	21063	1447.007599151692	361
34	21072	1448.007599151692	362
34	21103	1449.007599151692	363
34	21114	1451.007599151692	364
34	21124	1452.507599151692	365
34	21147	1453.007599151692	366
34	21165	1455.007599151692	367
34	21180	1457.007599151692	368
34	21181	1457.007599151692	369
34	21216	1459.007599151692	370
34	21227	1461.007599151692	371
34	21236	1461.507599151692	372
34	21266	1463.007599151692	373
34	21278	1465.007599151692	374
34	21288	1466.007599151692	375
34	21318	1467.007599151692	376
34	21329	1469.007599151692	377
34	21339	1470.507599151692	378
34	21363	1471.007599151692	379
34	21379	1473.007599151692	380
34	21395	1475.007599151692	381
34	21396	1475.007599151692	382
34	21431	1477.007599151692	383
34	21442	1479.007599151692	384
34	21451	1479.507599151692	385
34	21482	1481.007599151692	386
34	21492	1483.007599151692	387
34	21503	1484.007599151692	388
34	21533	1485.007599151692	389
34	21544	1487.007599151692	390
34	21553	1488.507599151692	391
34	21578	1489.007599151692	392
34	21595	1491.007599151692	393
34	21609	1493.007599151692	394
34	21610	1493.007599151692	395
34	21646	1495.007599151692	396
34	21657	1497.007599151692	397
34	21666	1497.507599151692	398
34	21697	1499.007599151692	399
34	21708	1501.007599151692	400
34	21718	1502.007599151692	401
34	21747	1503.007599151692	402
34	21759	1505.007599151692	403
34	21769	1506.507599151692	404
34	21793	1507.007599151692	405
34	21810	1509.007599151692	406
34	21825	1511.007599151692	407
34	21826	1511.007599151692	408
34	21860	1513.007599151692	409
34	21872	1515.007599151692	410
34	21881	1515.507599151692	411
34	21912	1517.007599151692	412
34	21923	1519.007599151692	413
34	21933	1520.007599151692	414
34	21963	1521.007599151692	415
34	21973	1523.007599151692	416
34	21984	1524.507599151692	417
34	22008	1525.007599151692	418
34	22025	1527.007599151692	419
34	22040	1529.007599151692	420
34	22041	1529.007599151692	421
34	22076	1531.007599151692	422
34	22086	1533.007599151692	423
34	22095	1533.507599151692	424
34	22127	1535.007599151692	425
34	22138	1537.007599151692	426
34	22147	1538.007599151692	427
34	22178	1539.007599151692	428
34	22189	1541.007599151692	429
34	30504	2238.002680856137	430
34	30522	2240.002680856137	431
34	30536	2242.002680856137	432
34	30537	2242.002680856137	433

