version 2
run StaticNetwork-0-20220321-08:55:44-20828
attr configname StaticNetwork
attr datetime 20220321-08:55:44
attr experiment StaticNetwork
attr inifile omnetpp.ini
attr iterationvars "$0=1, $1=7, $2=0"
attr iterationvarsf 1,7,0-
attr measurement "$0=1, $1=7, $2=0"
attr network RAFT_Network
attr processid 20828
attr repetition 0
attr replication #0
attr resultdir results
attr runnumber 0
attr seedset 0
param **.servers_number 5
param **.clients_number 5
param **.client[*].requestMsgTimeout "normal(7.0s, 1.5s)"
param **.cloud.propDelay "uniform(0.1s, 0.3s)"
param **.server[*].electionTimeout "normal(5.0s, 1s)"
param **.server[*].heartbeatTimeout 2s
param **.server[*].appendEntriesTimeout 4.5s
param **.server[*].checkFailureTimeout 1s
param **.server[*].checkRecoveryTimeout 1s
param **.failureProbability 1
param **.recoveryProbability 7
param **.messageLossProbability 0

vector 0 RAFT_Network.server[0] serverState ETV
vector 1 RAFT_Network.server[1] serverState ETV
vector 2 RAFT_Network.server[2] serverState ETV
vector 3 RAFT_Network.server[3] serverState ETV
vector 4 RAFT_Network.server[4] serverState ETV
vector 5 RAFT_Network.server[0] totMsgReceived ETV
vector 6 RAFT_Network.server[3] totMsgSent ETV
vector 7 RAFT_Network.server[3] totRequestVoteMsgSent ETV
vector 8 RAFT_Network.server[1] totMsgReceived ETV
vector 9 RAFT_Network.server[1] totMsgSent ETV
vector 10 RAFT_Network.server[1] totReplyToClientRequestMsgSent ETV
vector 11 RAFT_Network.server[3] totMsgReceived ETV
vector 12 RAFT_Network.server[2] totMsgReceived ETV
vector 13 RAFT_Network.server[2] totMsgSent ETV
vector 14 RAFT_Network.server[2] totReplyToClientRequestMsgSent ETV
vector 15 RAFT_Network.server[4] totMsgReceived ETV
vector 16 RAFT_Network.server[3] totAppendEntriesMsgSent ETV
vector 17 RAFT_Network.server[1] totReplyToAppendEntriesMsgSent ETV
vector 18 RAFT_Network.server[2] totReplyToAppendEntriesMsgSent ETV
vector 19 RAFT_Network.server[0] totMsgSent ETV
vector 20 RAFT_Network.server[0] totReplyToAppendEntriesMsgSent ETV
vector 21 RAFT_Network.server[4] totMsgSent ETV
vector 22 RAFT_Network.server[4] totReplyToAppendEntriesMsgSent ETV
vector 23 RAFT_Network.server[3] totReplyToClientRequestMsgSent ETV
vector 24 RAFT_Network.client[3] responseTime ETV
vector 25 RAFT_Network.client[2] responseTime ETV
vector 26 RAFT_Network.client[1] responseTime ETV
vector 27 RAFT_Network.client[0] responseTime ETV
vector 28 RAFT_Network.client[4] responseTime ETV
vector 29 RAFT_Network.server[0] totRequestVoteMsgSent ETV
vector 30 RAFT_Network.server[0] totAppendEntriesMsgSent ETV
vector 31 RAFT_Network.server[3] totReplyToAppendEntriesMsgSent ETV
vector 32 RAFT_Network.server[0] totReplyToClientRequestMsgSent ETV
vector 33 RAFT_Network.server[4] totReplyToClientRequestMsgSent ETV
0	0	0	0
0	6	2	0
0	6	2	-1
0	40	6	-1
0	40	6	0
0	48	6.082597122967	0
0	48	6.082597122967	0
0	432	32.0296069512	0
0	432	32.0296069512	1
0	438	32.150851216882	1
0	438	32.150851216882	2
0	2391	162	2
0	2391	162	-1
0	2689	182	-1
0	2689	182	0
0	2699	182.2583919403	0
0	2699	182.2583919403	0
0	2971	200	0
1	0	0	0
1	32	5.720907988729	0
1	32	5.720907988729	0
1	125	11	0
1	125	11	-1
1	242	19	-1
1	242	19	0
1	436	32.113217511216	0
1	436	32.113217511216	0
1	642	48	0
1	642	48	-1
1	720	53	-1
1	720	53	0
1	2436	165.896702806062	0
1	2436	165.896702806062	0
1	2971	200	0
2	0	0	0
2	34	5.795175922241	0
2	34	5.795175922241	0
2	434	32.062301079561	0
2	434	32.062301079561	0
2	453	34	0
2	453	34	-1
2	745	55	-1
2	745	55	0
2	2438	165.970970739574	0
2	2438	165.970970739574	0
2	2971	200	0
3	0	0	0
3	31	5.719886709309	0
3	31	5.719886709309	1
3	38	5.952684418675	1
3	38	5.952684418675	2
3	381	28	2
3	381	28	-1
3	635	47	-1
3	635	47	0
3	647	48.175794817333	0
3	647	48.175794817333	0
3	704	51	0
3	704	51	-1
3	885	64	-1
3	885	64	0
3	2435	165.895681526642	0
3	2435	165.895681526642	1
3	2449	166.128479236008	1
3	2449	166.128479236008	2
3	2971	200	2
4	0	0	0
4	5	1	0
4	5	1	-1
4	76	8	-1
4	76	8	0
4	79	8.054729029471	0
4	79	8.054729029471	0
4	300	22	0
4	300	22	-1
4	556	42	-1
4	556	42	0
4	561	42.241269680096	0
4	561	42.241269680096	0
4	793	58	0
4	793	58	-1
4	1257	88	-1
4	1257	88	0
4	1778	121	0
4	1778	121	-1
4	2422	165	-1
4	2422	165	0
4	2439	165.997726137438	0
4	2439	165.997726137438	0
4	2760	186	0
4	2760	186	-1
4	2971	200	-1
5	30	5.718309947172	1
5	36	5.849799413601	2
5	48	6.082597122967	3
5	57	6.855439594234	4
5	80	8.082597122967	5
5	101	10.082597122967	6
5	111	10.582597122967	7
5	132	11.102573369272	8
5	154	12.082597122967	9
5	173	14.082597122967	10
5	186	15.082597122967	11
5	219	16.082597122967	12
5	237	18.082597122967	13
5	251	19.582597122967	14
5	280	20.082597122967	15
5	304	22.082597122967	16
5	327	24.082597122967	17
5	328	24.082597122967	18
5	368	26.082597122967	19
5	386	28.082597122967	20
5	404	30.249362786261	21
5	418	31.147032601856	22
5	420	31.372340068709	23
5	435	32.104272722206	24
5	438	32.150851216882	25
5	442	32.225516987888	26
5	445	32.272095482564	27
5	461	34.272095482564	28
5	485	36.272095482564	29
5	496	37.140938449293	30
5	509	38.272095482564	31
5	517	38.921204921816	32
5	533	40.272095482564	33
5	550	41.272095482564	34
5	551	41.546441859848	35
5	562	42.244953947869	36
5	563	42.272095482564	37
5	575	43.356027909756	38
5	586	44.244953947869	39
5	587	44.272095482564	40
5	603	45.237575067372	41
5	605	45.435852187378	42
5	613	45.744953947869	43
5	615	45.772095482564	44
5	621	46.037150599976	45
5	627	46.244953947869	46
5	628	46.272095482564	47
5	640	47.610394415823	48
5	651	48.244953947869	49
5	652	48.305707521625	50
5	664	49.522561461051	51
5	679	50.244953947869	52
5	680	50.244953947869	53
5	681	50.305707521625	54
5	682	50.305707521625	55
5	698	50.967120565527	56
5	699	50.982193724194	57
5	700	50.986097515261	58
5	706	51.042704570077	59
5	707	51.118007728306	60
5	718	52.244953947869	61
5	734	54.244953947869	62
5	735	54.272095482564	63
5	741	54.744953947869	64
5	742	54.772095482564	65
5	759	56.225516987888	66
5	763	56.244953947869	67
5	764	56.272095482564	68
5	778	57.050050071236	69
5	781	57.200469586759	70
5	794	58.080808284618	71
5	798	58.225516987888	72
5	801	58.272095482564	73
5	810	59.225516987888	74
5	827	59.88693003179	75
5	828	59.902003190457	76
5	829	59.905906981524	77
5	830	59.96251403634	78
5	836	60.037817194569	79
5	841	60.225516987888	80
5	844	60.272095482564	81
5	847	60.85011740125	82
5	861	62.225516987888	83
5	864	62.272095482564	84
5	873	63.725516987888	85
5	876	63.772095482564	86
5	898	64.225516987888	87
5	902	64.272095482564	88
5	904	64.305707521625	89
5	905	64.433508526466	90
5	906	64.448581685133	91
5	907	64.4524854762	92
5	908	64.509092531016	93
5	909	64.584395689245	94
5	923	66.225516987888	95
5	926	66.272095482564	96
5	927	66.305707521625	97
5	944	68.225516987888	98
5	945	68.225516987888	99
5	950	68.272095482564	100
5	951	68.272095482564	101
5	952	68.305707521625	102
5	953	68.305707521625	103
5	969	68.933508526466	104
5	970	68.948581685133	105
5	971	68.9524854762	106
5	977	69.009092531016	107
5	978	69.084395689245	108
5	987	70.225516987888	109
5	990	70.272095482564	110
5	991	70.305707521625	111
5	1005	72.225516987888	112
5	1008	72.272095482564	113
5	1009	72.305707521625	114
5	1013	72.725516987888	115
5	1016	72.772095482564	116
5	1017	72.805707521625	117
5	1038	73.433508526466	118
5	1039	73.448581685133	119
5	1040	73.4524854762	120
5	1041	73.509092531016	121
5	1042	73.584395689245	122
5	1051	74.225516987888	123
5	1054	74.272095482564	124
5	1055	74.305707521625	125
5	1069	76.225516987888	126
5	1072	76.272095482564	127
5	1073	76.305707521625	128
5	1082	77.225516987888	129
5	1085	77.272095482564	130
5	1086	77.305707521625	131
5	1102	77.933508526466	132
5	1103	77.948581685133	133
5	1104	77.9524854762	134
5	1110	78.009092531016	135
5	1111	78.084395689245	136
5	1115	78.225516987888	137
5	1118	78.272095482564	138
5	1119	78.305707521625	139
5	1133	80.225516987888	140
5	1136	80.272095482564	141
5	1137	80.305707521625	142
5	1146	81.725516987888	143
5	1149	81.772095482564	144
5	1150	81.805707521625	145
5	1172	82.225516987888	146
5	1176	82.272095482564	147
5	1178	82.305707521625	148
5	1179	82.433508526466	149
5	1180	82.448581685133	150
5	1181	82.4524854762	151
5	1182	82.509092531016	152
5	1183	82.584395689245	153
5	1197	84.225516987888	154
5	1200	84.272095482564	155
5	1201	84.305707521625	156
5	1218	86.225516987888	157
5	1219	86.225516987888	158
5	1224	86.272095482564	159
5	1225	86.272095482564	160
5	1226	86.305707521625	161
5	1227	86.305707521625	162
5	1243	86.933508526466	163
5	1244	86.948581685133	164
5	1245	86.9524854762	165
5	1251	87.009092531016	166
5	1252	87.084395689245	167
5	1261	88.225516987888	168
5	1264	88.244953947869	169
5	1265	88.272095482564	170
5	1266	88.305707521625	171
5	1280	90.225516987888	172
5	1283	90.244953947869	173
5	1284	90.272095482564	174
5	1285	90.305707521625	175
5	1289	90.725516987888	176
5	1292	90.744953947869	177
5	1293	90.772095482564	178
5	1294	90.805707521625	179
5	1315	91.433508526466	180
5	1316	91.448581685133	181
5	1317	91.4524854762	182
5	1318	91.509092531016	183
5	1319	91.584395689245	184
5	1328	92.225516987888	185
5	1331	92.244953947869	186
5	1332	92.272095482564	187
5	1333	92.305707521625	188
5	1347	94.225516987888	189
5	1350	94.244953947869	190
5	1351	94.272095482564	191
5	1352	94.305707521625	192
5	1361	95.225516987888	193
5	1364	95.244953947869	194
5	1365	95.272095482564	195
5	1366	95.305707521625	196
5	1382	95.933508526466	197
5	1383	95.948581685133	198
5	1384	95.9524854762	199
5	1390	96.009092531016	200
5	1391	96.084395689245	201
5	1395	96.225516987888	202
5	1398	96.244953947869	203
5	1399	96.272095482564	204
5	1400	96.305707521625	205
5	1414	98.225516987888	206
5	1417	98.244953947869	207
5	1418	98.272095482564	208
5	1419	98.305707521625	209
5	1428	99.725516987888	210
5	1431	99.744953947869	211
5	1432	99.772095482564	212
5	1433	99.805707521625	213
5	1455	100.225516987888	214
5	1459	100.244953947869	215
5	1461	100.272095482564	216
5	1462	100.305707521625	217
5	1463	100.406366991771	218
5	1464	100.421440150438	219
5	1465	100.425343941505	220
5	1466	100.481950996321	221
5	1467	100.55725415455	222
5	1481	102.225516987888	223
5	1484	102.244953947869	224
5	1485	102.272095482564	225
5	1486	102.305707521625	226
5	1503	104.225516987888	227
5	1504	104.225516987888	228
5	1509	104.244953947869	229
5	1510	104.244953947869	230
5	1511	104.272095482564	231
5	1512	104.272095482564	232
5	1513	104.305707521625	233
5	1514	104.305707521625	234
5	1530	104.906366991771	235
5	1531	104.921440150438	236
5	1532	104.925343941505	237
5	1533	104.981950996321	238
5	1539	105.05725415455	239
5	1548	106.225516987888	240
5	1551	106.244953947869	241
5	1552	106.272095482564	242
5	1553	106.305707521625	243
5	1567	108.225516987888	244
5	1570	108.244953947869	245
5	1571	108.272095482564	246
5	1572	108.305707521625	247
5	1576	108.725516987888	248
5	1579	108.744953947869	249
5	1580	108.772095482564	250
5	1581	108.805707521625	251
5	1602	109.406366991771	252
5	1603	109.421440150438	253
5	1604	109.425343941505	254
5	1605	109.481950996321	255
5	1606	109.55725415455	256
5	1615	110.225516987888	257
5	1618	110.244953947869	258
5	1619	110.272095482564	259
5	1620	110.305707521625	260
5	1634	112.225516987888	261
5	1637	112.244953947869	262
5	1638	112.272095482564	263
5	1639	112.305707521625	264
5	1648	113.225516987888	265
5	1651	113.244953947869	266
5	1652	113.272095482564	267
5	1653	113.305707521625	268
5	1669	113.906366991771	269
5	1670	113.921440150438	270
5	1671	113.925343941505	271
5	1672	113.981950996321	272
5	1678	114.05725415455	273
5	1682	114.225516987888	274
5	1685	114.244953947869	275
5	1686	114.272095482564	276
5	1687	114.305707521625	277
5	1701	116.225516987888	278
5	1704	116.244953947869	279
5	1705	116.272095482564	280
5	1706	116.305707521625	281
5	1715	117.725516987888	282
5	1718	117.744953947869	283
5	1719	117.772095482564	284
5	1720	117.805707521625	285
5	1742	118.225516987888	286
5	1746	118.244953947869	287
5	1748	118.272095482564	288
5	1749	118.305707521625	289
5	1750	118.406366991771	290
5	1751	118.421440150438	291
5	1752	118.425343941505	292
5	1753	118.481950996321	293
5	1754	118.55725415455	294
5	1768	120.225516987888	295
5	1771	120.244953947869	296
5	1772	120.272095482564	297
5	1773	120.305707521625	298
5	1790	122.225516987888	299
5	1791	122.225516987888	300
5	1796	122.272095482564	301
5	1797	122.272095482564	302
5	1798	122.305707521625	303
5	1799	122.305707521625	304
5	1815	122.933508526466	305
5	1816	122.948581685133	306
5	1817	122.9524854762	307
5	1823	123.009092531016	308
5	1824	123.084395689245	309
5	1833	124.225516987888	310
5	1836	124.272095482564	311
5	1837	124.305707521625	312
5	1851	126.225516987888	313
5	1854	126.272095482564	314
5	1855	126.305707521625	315
5	1859	126.725516987888	316
5	1862	126.772095482564	317
5	1863	126.805707521625	318
5	1884	127.433508526466	319
5	1885	127.448581685133	320
5	1886	127.4524854762	321
5	1887	127.509092531016	322
5	1888	127.584395689245	323
5	1897	128.225516987888	324
5	1900	128.272095482564	325
5	1901	128.305707521625	326
5	1915	130.225516987888	327
5	1918	130.272095482564	328
5	1919	130.305707521625	329
5	1928	131.225516987888	330
5	1931	131.272095482564	331
5	1932	131.305707521625	332
5	1948	131.933508526466	333
5	1949	131.948581685133	334
5	1950	131.9524854762	335
5	1956	132.009092531016	336
5	1957	132.084395689245	337
5	1961	132.225516987888	338
5	1964	132.272095482564	339
5	1965	132.305707521625	340
5	1979	134.225516987888	341
5	1982	134.272095482564	342
5	1983	134.305707521625	343
5	1992	135.725516987888	344
5	1995	135.772095482564	345
5	1996	135.805707521625	346
5	2018	136.225516987888	347
5	2022	136.272095482564	348
5	2024	136.305707521625	349
5	2025	136.433508526466	350
5	2026	136.448581685133	351
5	2027	136.4524854762	352
5	2028	136.509092531016	353
5	2029	136.584395689245	354
5	2043	138.225516987888	355
5	2046	138.272095482564	356
5	2047	138.305707521625	357
5	2064	140.225516987888	358
5	2065	140.225516987888	359
5	2070	140.272095482564	360
5	2071	140.272095482564	361
5	2072	140.305707521625	362
5	2073	140.305707521625	363
5	2089	140.933508526466	364
5	2090	140.948581685133	365
5	2091	140.9524854762	366
5	2097	141.009092531016	367
5	2098	141.084395689245	368
5	2107	142.225516987888	369
5	2110	142.272095482564	370
5	2111	142.305707521625	371
5	2125	144.225516987888	372
5	2128	144.272095482564	373
5	2129	144.305707521625	374
5	2133	144.725516987888	375
5	2136	144.772095482564	376
5	2137	144.805707521625	377
5	2158	145.433508526466	378
5	2159	145.448581685133	379
5	2160	145.4524854762	380
5	2161	145.509092531016	381
5	2162	145.584395689245	382
5	2171	146.225516987888	383
5	2174	146.272095482564	384
5	2175	146.305707521625	385
5	2189	148.225516987888	386
5	2192	148.272095482564	387
5	2193	148.305707521625	388
5	2202	149.225516987888	389
5	2205	149.272095482564	390
5	2206	149.305707521625	391
5	2222	149.933508526466	392
5	2223	149.948581685133	393
5	2224	149.9524854762	394
5	2230	150.009092531016	395
5	2231	150.084395689245	396
5	2235	150.225516987888	397
5	2238	150.272095482564	398
5	2239	150.305707521625	399
5	2253	152.225516987888	400
5	2256	152.272095482564	401
5	2257	152.305707521625	402
5	2266	153.725516987888	403
5	2269	153.772095482564	404
5	2270	153.805707521625	405
5	2292	154.225516987888	406
5	2296	154.272095482564	407
5	2298	154.305707521625	408
5	2299	154.433508526466	409
5	2300	154.448581685133	410
5	2301	154.4524854762	411
5	2302	154.509092531016	412
5	2303	154.584395689245	413
5	2317	156.225516987888	414
5	2320	156.272095482564	415
5	2321	156.305707521625	416
5	2338	158.225516987888	417
5	2339	158.225516987888	418
5	2344	158.272095482564	419
5	2345	158.272095482564	420
5	2346	158.305707521625	421
5	2347	158.305707521625	422
5	2363	158.933508526466	423
5	2364	158.948581685133	424
5	2365	158.9524854762	425
5	2371	159.009092531016	426
5	2372	159.084395689245	427
5	2381	160.225516987888	428
5	2384	160.272095482564	429
5	2385	160.305707521625	430
5	2423	165.017366475208	431
5	2426	165.115115236428	432
5	2445	166.025594230934	433
5	2447	166.046267802524	434
5	2455	166.2583919403	435
5	2457	166.373906522988	436
5	2474	168.2583919403	437
5	2501	170.2583919403	438
5	2515	170.7583919403	439
5	2541	172.2583919403	440
5	2571	174.2583919403	441
5	2584	175.2583919403	442
5	2617	176.2583919403	443
5	2635	178.2583919403	444
5	2648	179.7583919403	445
5	2674	180.2583919403	446
5	2699	182.2583919403	447
5	2723	184.2583919403	448
5	2724	184.2583919403	449
5	2766	186.2583919403	450
5	2784	188.2583919403	451
5	2792	188.7583919403	452
5	2830	190.2583919403	453
5	2848	192.2583919403	454
5	2861	193.2583919403	455
5	2894	194.2583919403	456
5	2912	196.2583919403	457
5	2925	197.7583919403	458
5	2953	198.2583919403	459
6	31	5.719886709309	1
6	31	5.719886709309	2
6	31	5.719886709309	3
6	31	5.719886709309	4
6	38	5.952684418675	5
6	38	5.952684418675	6
6	38	5.952684418675	7
6	38	5.952684418675	8
6	70	7.952684418675	9
6	70	7.952684418675	10
6	70	7.952684418675	11
6	70	7.952684418675	12
6	89	9.952684418675	13
6	89	9.952684418675	14
6	89	9.952684418675	15
6	89	9.952684418675	16
6	106	10.452684418675	17
6	106	10.452684418675	18
6	106	10.452684418675	19
6	106	10.452684418675	20
6	112	10.607540723418	21
6	112	10.607540723418	22
6	112	10.607540723418	23
6	145	11.952684418675	24
6	145	11.952684418675	25
6	145	11.952684418675	26
6	145	11.952684418675	27
6	164	13.952684418675	28
6	164	13.952684418675	29
6	164	13.952684418675	30
6	164	13.952684418675	31
6	177	14.952684418675	32
6	177	14.952684418675	33
6	177	14.952684418675	34
6	177	14.952684418675	35
6	188	15.185482128041	36
6	188	15.185482128041	37
6	188	15.185482128041	38
6	188	15.185482128041	39
6	188	15.185482128041	40
6	210	15.952684418675	41
6	210	15.952684418675	42
6	210	15.952684418675	43
6	210	15.952684418675	44
6	228	17.952684418675	45
6	228	17.952684418675	46
6	228	17.952684418675	47
6	228	17.952684418675	48
6	246	19.452684418675	49
6	246	19.452684418675	50
6	246	19.452684418675	51
6	246	19.452684418675	52
6	252	19.607540723418	53
6	252	19.607540723418	54
6	252	19.607540723418	55
6	252	19.607540723418	56
6	252	19.607540723418	57
6	267	19.952684418675	58
6	267	19.952684418675	59
6	267	19.952684418675	60
6	267	19.952684418675	61
6	294	21.952684418675	62
6	294	21.952684418675	63
6	294	21.952684418675	64
6	294	21.952684418675	65
6	312	23.952684418675	66
6	312	23.952684418675	67
6	312	23.952684418675	68
6	312	23.952684418675	69
6	313	23.952684418675	70
6	313	23.952684418675	71
6	313	23.952684418675	72
6	313	23.952684418675	73
6	329	24.107540723418	74
6	329	24.107540723418	75
6	329	24.107540723418	76
6	329	24.107540723418	77
6	329	24.107540723418	78
6	358	25.952684418675	79
6	358	25.952684418675	80
6	358	25.952684418675	81
6	358	25.952684418675	82
6	376	27.952684418675	83
6	376	27.952684418675	84
6	376	27.952684418675	85
6	376	27.952684418675	86
6	647	48.175794817333	87
6	672	50.175794817333	88
6	673	50.175794817333	89
6	895	64.175794817333	90
6	921	66.175794817333	91
6	940	68.175794817333	92
6	941	68.175794817333	93
6	985	70.175794817333	94
6	1003	72.175794817333	95
6	1011	72.675794817333	96
6	1049	74.175794817333	97
6	1067	76.175794817333	98
6	1080	77.175794817333	99
6	1113	78.175794817333	100
6	1131	80.175794817333	101
6	1144	81.675794817333	102
6	1169	82.175794817333	103
6	1195	84.175794817333	104
6	1214	86.175794817333	105
6	1215	86.175794817333	106
6	1259	88.175794817333	107
6	1278	90.175794817333	108
6	1287	90.675794817333	109
6	1326	92.175794817333	110
6	1345	94.175794817333	111
6	1359	95.175794817333	112
6	1393	96.175794817333	113
6	1412	98.175794817333	114
6	1426	99.675794817333	115
6	1452	100.175794817333	116
6	1479	102.175794817333	117
6	1499	104.175794817333	118
6	1500	104.175794817333	119
6	1546	106.175794817333	120
6	1565	108.175794817333	121
6	1574	108.675794817333	122
6	1613	110.175794817333	123
6	1632	112.175794817333	124
6	1646	113.175794817333	125
6	1680	114.175794817333	126
6	1699	116.175794817333	127
6	1713	117.675794817333	128
6	1739	118.175794817333	129
6	1766	120.175794817333	130
6	1786	122.175794817333	131
6	1787	122.175794817333	132
6	1831	124.175794817333	133
6	1849	126.175794817333	134
6	1857	126.675794817333	135
6	1895	128.175794817333	136
6	1913	130.175794817333	137
6	1926	131.175794817333	138
6	1959	132.175794817333	139
6	1977	134.175794817333	140
6	1990	135.675794817333	141
6	2015	136.175794817333	142
6	2041	138.175794817333	143
6	2060	140.175794817333	144
6	2061	140.175794817333	145
6	2105	142.175794817333	146
6	2123	144.175794817333	147
6	2131	144.675794817333	148
6	2169	146.175794817333	149
6	2187	148.175794817333	150
6	2200	149.175794817333	151
6	2233	150.175794817333	152
6	2251	152.175794817333	153
6	2264	153.675794817333	154
6	2289	154.175794817333	155
6	2315	156.175794817333	156
6	2334	158.175794817333	157
6	2335	158.175794817333	158
6	2379	160.175794817333	159
6	2435	165.895681526642	160
6	2435	165.895681526642	161
6	2435	165.895681526642	162
6	2435	165.895681526642	163
6	2449	166.128479236008	164
6	2449	166.128479236008	165
6	2449	166.128479236008	166
6	2449	166.128479236008	167
6	2469	168.128479236008	168
6	2469	168.128479236008	169
6	2469	168.128479236008	170
6	2469	168.128479236008	171
6	2496	170.128479236008	172
6	2496	170.128479236008	173
6	2496	170.128479236008	174
6	2496	170.128479236008	175
6	2508	170.628479236008	176
6	2508	170.628479236008	177
6	2508	170.628479236008	178
6	2508	170.628479236008	179
6	2517	170.861276945374	180
6	2534	172.128479236008	181
6	2534	172.128479236008	182
6	2534	172.128479236008	183
6	2534	172.128479236008	184
6	2566	174.128479236008	185
6	2566	174.128479236008	186
6	2566	174.128479236008	187
6	2566	174.128479236008	188
6	2579	175.128479236008	189
6	2579	175.128479236008	190
6	2579	175.128479236008	191
6	2579	175.128479236008	192
6	2585	175.361276945374	193
6	2585	175.361276945374	194
6	2585	175.361276945374	195
6	2585	175.361276945374	196
6	2585	175.361276945374	197
6	2612	176.128479236008	198
6	2612	176.128479236008	199
6	2612	176.128479236008	200
6	2612	176.128479236008	201
6	2630	178.128479236008	202
6	2630	178.128479236008	203
6	2630	178.128479236008	204
6	2630	178.128479236008	205
6	2643	179.628479236008	206
6	2643	179.628479236008	207
6	2643	179.628479236008	208
6	2643	179.628479236008	209
6	2649	179.861276945374	210
6	2649	179.861276945374	211
6	2649	179.861276945374	212
6	2649	179.861276945374	213
6	2649	179.861276945374	214
6	2661	180.128479236008	215
6	2661	180.128479236008	216
6	2661	180.128479236008	217
6	2661	180.128479236008	218
6	2694	182.128479236008	219
6	2694	182.128479236008	220
6	2694	182.128479236008	221
6	2694	182.128479236008	222
6	2713	184.128479236008	223
6	2713	184.128479236008	224
6	2713	184.128479236008	225
6	2713	184.128479236008	226
6	2714	184.128479236008	227
6	2714	184.128479236008	228
6	2714	184.128479236008	229
6	2714	184.128479236008	230
6	2725	184.283335540751	231
6	2725	184.283335540751	232
6	2725	184.283335540751	233
6	2725	184.283335540751	234
6	2725	184.283335540751	235
6	2761	186.128479236008	236
6	2761	186.128479236008	237
6	2761	186.128479236008	238
6	2761	186.128479236008	239
6	2779	188.128479236008	240
6	2779	188.128479236008	241
6	2779	188.128479236008	242
6	2779	188.128479236008	243
6	2787	188.628479236008	244
6	2787	188.628479236008	245
6	2787	188.628479236008	246
6	2787	188.628479236008	247
6	2793	188.783335540751	248
6	2793	188.783335540751	249
6	2793	188.783335540751	250
6	2793	188.783335540751	251
6	2793	188.783335540751	252
6	2825	190.128479236008	253
6	2825	190.128479236008	254
6	2825	190.128479236008	255
6	2825	190.128479236008	256
6	2843	192.128479236008	257
6	2843	192.128479236008	258
6	2843	192.128479236008	259
6	2843	192.128479236008	260
6	2856	193.128479236008	261
6	2856	193.128479236008	262
6	2856	193.128479236008	263
6	2856	193.128479236008	264
6	2862	193.283335540751	265
6	2862	193.283335540751	266
6	2862	193.283335540751	267
6	2862	193.283335540751	268
6	2862	193.283335540751	269
6	2889	194.128479236008	270
6	2889	194.128479236008	271
6	2889	194.128479236008	272
6	2889	194.128479236008	273
6	2907	196.128479236008	274
6	2907	196.128479236008	275
6	2907	196.128479236008	276
6	2907	196.128479236008	277
6	2920	197.628479236008	278
6	2920	197.628479236008	279
6	2920	197.628479236008	280
6	2920	197.628479236008	281
6	2926	197.783335540751	282
6	2926	197.783335540751	283
6	2926	197.783335540751	284
6	2926	197.783335540751	285
6	2926	197.783335540751	286
6	2945	198.128479236008	287
6	2945	198.128479236008	288
6	2945	198.128479236008	289
6	2945	198.128479236008	290
7	31	5.719886709309	1
7	31	5.719886709309	2
7	31	5.719886709309	3
7	31	5.719886709309	4
7	2435	165.895681526642	5
7	2435	165.895681526642	6
7	2435	165.895681526642	7
7	2435	165.895681526642	8
8	32	5.720907988729	1
8	39	5.953705698095	2
8	71	7.953705698095	3
8	90	9.953705698095	4
8	107	10.453705698095	5
8	146	11.953705698095	6
8	165	13.953705698095	7
8	178	14.953705698095	8
8	211	15.953705698095	9
8	229	17.953705698095	10
8	247	19.453705698095	11
8	268	19.953705698095	12
8	295	21.953705698095	13
8	314	23.953705698095	14
8	315	23.953705698095	15
8	359	25.953705698095	16
8	377	27.953705698095	17
8	436	32.113217511216	18
8	443	32.234461776898	19
8	459	34.234461776898	20
8	483	36.234461776898	21
8	486	36.513767751596	22
8	507	38.234461776898	23
8	510	38.309107382786	24
8	531	40.234461776898	25
8	536	40.915367371084	26
8	547	41.234461776898	27
8	560	42.234461776898	28
8	566	42.728857212059	29
8	584	44.234461776898	30
8	590	44.748170643798	31
8	610	45.734461776898	32
8	625	46.234461776898	33
8	631	46.979319927059	34
8	649	48.234461776898	35
8	676	50.234461776898	36
8	716	52.234461776898	37
8	732	54.234461776898	38
8	739	54.734461776898	39
8	761	56.234461776898	40
8	765	56.418975582472	41
8	799	58.234461776898	42
8	842	60.234461776898	43
8	862	62.234461776898	44
8	874	63.734461776898	45
8	899	64.234461776898	46
8	924	66.234461776898	47
8	946	68.234461776898	48
8	947	68.234461776898	49
8	988	70.234461776898	50
8	1006	72.234461776898	51
8	1014	72.734461776898	52
8	1052	74.234461776898	53
8	1070	76.234461776898	54
8	1083	77.234461776898	55
8	1116	78.234461776898	56
8	1134	80.234461776898	57
8	1147	81.734461776898	58
8	1173	82.234461776898	59
8	1198	84.234461776898	60
8	1220	86.234461776898	61
8	1221	86.234461776898	62
8	1262	88.234461776898	63
8	1281	90.234461776898	64
8	1290	90.734461776898	65
8	1329	92.234461776898	66
8	1348	94.234461776898	67
8	1362	95.234461776898	68
8	1396	96.234461776898	69
8	1415	98.234461776898	70
8	1429	99.734461776898	71
8	1457	100.234461776898	72
8	1482	102.234461776898	73
8	1505	104.234461776898	74
8	1506	104.234461776898	75
8	1549	106.234461776898	76
8	1568	108.234461776898	77
8	1577	108.734461776898	78
8	1616	110.234461776898	79
8	1635	112.234461776898	80
8	1649	113.234461776898	81
8	1683	114.234461776898	82
8	1702	116.234461776898	83
8	1716	117.734461776898	84
8	1744	118.234461776898	85
8	1769	120.234461776898	86
8	1792	122.234461776898	87
8	1793	122.234461776898	88
8	1834	124.234461776898	89
8	1852	126.234461776898	90
8	1860	126.734461776898	91
8	1898	128.234461776898	92
8	1916	130.234461776898	93
8	1929	131.234461776898	94
8	1962	132.234461776898	95
8	1980	134.234461776898	96
8	1993	135.734461776898	97
8	2019	136.234461776898	98
8	2044	138.234461776898	99
8	2066	140.234461776898	100
8	2067	140.234461776898	101
8	2108	142.234461776898	102
8	2126	144.234461776898	103
8	2134	144.734461776898	104
8	2172	146.234461776898	105
8	2190	148.234461776898	106
8	2203	149.234461776898	107
8	2236	150.234461776898	108
8	2254	152.234461776898	109
8	2267	153.734461776898	110
8	2293	154.234461776898	111
8	2318	156.234461776898	112
8	2340	158.234461776898	113
8	2341	158.234461776898	114
8	2382	160.234461776898	115
8	2429	165.434170263494	116
8	2436	165.896702806062	117
8	2450	166.129500515428	118
8	2470	168.129500515428	119
8	2484	169.022200418226	120
8	2497	170.129500515428	121
8	2506	170.450244542419	122
8	2509	170.629500515428	123
8	2535	172.129500515428	124
8	2544	172.546929539552	125
8	2567	174.129500515428	126
8	2580	175.129500515428	127
8	2613	176.129500515428	128
8	2631	178.129500515428	129
8	2644	179.629500515428	130
8	2662	180.129500515428	131
8	2695	182.129500515428	132
8	2715	184.129500515428	133
8	2716	184.129500515428	134
8	2762	186.129500515428	135
8	2780	188.129500515428	136
8	2788	188.629500515428	137
8	2826	190.129500515428	138
8	2844	192.129500515428	139
8	2857	193.129500515428	140
8	2890	194.129500515428	141
8	2908	196.129500515428	142
8	2921	197.629500515428	143
8	2946	198.129500515428	144
9	32	5.720907988729	1
9	39	5.953705698095	2
9	71	7.953705698095	3
9	90	9.953705698095	4
9	107	10.453705698095	5
9	247	19.453705698095	6
9	268	19.953705698095	7
9	295	21.953705698095	8
9	314	23.953705698095	9
9	315	23.953705698095	10
9	359	25.953705698095	11
9	377	27.953705698095	12
9	436	32.113217511216	13
9	443	32.234461776898	14
9	459	34.234461776898	15
9	483	36.234461776898	16
9	507	38.234461776898	17
9	531	40.234461776898	18
9	547	41.234461776898	19
9	560	42.234461776898	20
9	584	44.234461776898	21
9	610	45.734461776898	22
9	625	46.234461776898	23
9	732	54.234461776898	24
9	739	54.734461776898	25
9	761	56.234461776898	26
9	799	58.234461776898	27
9	842	60.234461776898	28
9	862	62.234461776898	29
9	874	63.734461776898	30
9	899	64.234461776898	31
9	924	66.234461776898	32
9	946	68.234461776898	33
9	947	68.234461776898	34
9	988	70.234461776898	35
9	1006	72.234461776898	36
9	1014	72.734461776898	37
9	1052	74.234461776898	38
9	1070	76.234461776898	39
9	1083	77.234461776898	40
9	1116	78.234461776898	41
9	1134	80.234461776898	42
9	1147	81.734461776898	43
9	1173	82.234461776898	44
9	1198	84.234461776898	45
9	1220	86.234461776898	46
9	1221	86.234461776898	47
9	1262	88.234461776898	48
9	1281	90.234461776898	49
9	1290	90.734461776898	50
9	1329	92.234461776898	51
9	1348	94.234461776898	52
9	1362	95.234461776898	53
9	1396	96.234461776898	54
9	1415	98.234461776898	55
9	1429	99.734461776898	56
9	1457	100.234461776898	57
9	1482	102.234461776898	58
9	1505	104.234461776898	59
9	1506	104.234461776898	60
9	1549	106.234461776898	61
9	1568	108.234461776898	62
9	1577	108.734461776898	63
9	1616	110.234461776898	64
9	1635	112.234461776898	65
9	1649	113.234461776898	66
9	1683	114.234461776898	67
9	1702	116.234461776898	68
9	1716	117.734461776898	69
9	1744	118.234461776898	70
9	1769	120.234461776898	71
9	1792	122.234461776898	72
9	1793	122.234461776898	73
9	1834	124.234461776898	74
9	1852	126.234461776898	75
9	1860	126.734461776898	76
9	1898	128.234461776898	77
9	1916	130.234461776898	78
9	1929	131.234461776898	79
9	1962	132.234461776898	80
9	1980	134.234461776898	81
9	1993	135.734461776898	82
9	2019	136.234461776898	83
9	2044	138.234461776898	84
9	2066	140.234461776898	85
9	2067	140.234461776898	86
9	2108	142.234461776898	87
9	2126	144.234461776898	88
9	2134	144.734461776898	89
9	2172	146.234461776898	90
9	2190	148.234461776898	91
9	2203	149.234461776898	92
9	2236	150.234461776898	93
9	2254	152.234461776898	94
9	2267	153.734461776898	95
9	2293	154.234461776898	96
9	2318	156.234461776898	97
9	2340	158.234461776898	98
9	2341	158.234461776898	99
9	2382	160.234461776898	100
9	2436	165.896702806062	101
9	2450	166.129500515428	102
9	2470	168.129500515428	103
9	2497	170.129500515428	104
9	2509	170.629500515428	105
9	2535	172.129500515428	106
9	2567	174.129500515428	107
9	2580	175.129500515428	108
9	2613	176.129500515428	109
9	2631	178.129500515428	110
9	2644	179.629500515428	111
9	2662	180.129500515428	112
9	2695	182.129500515428	113
9	2715	184.129500515428	114
9	2716	184.129500515428	115
9	2762	186.129500515428	116
9	2780	188.129500515428	117
9	2788	188.629500515428	118
9	2826	190.129500515428	119
9	2844	192.129500515428	120
9	2857	193.129500515428	121
9	2890	194.129500515428	122
9	2908	196.129500515428	123
9	2921	197.629500515428	124
9	2946	198.129500515428	125
10	32	5.720907988729	1
10	436	32.113217511216	2
10	2436	165.896702806062	3
11	33	5.773138614144	1
11	37	5.886530806529	2
11	38	5.952684418675	3
11	45	6.00593632351	4
11	49	6.107540723418	5
11	50	6.185482128041	6
11	68	7.434426980895	7
11	69	7.692451289367	8
11	77	8.00593632351	9
11	81	8.107540723418	10
11	82	8.185482128041	11
11	83	8.246990122928	12
11	97	10.00593632351	13
11	102	10.107540723418	14
11	103	10.185482128041	15
11	104	10.246990122928	16
11	105	10.350703429876	17
11	108	10.50593632351	18
11	112	10.607540723418	19
11	116	10.685482128041	20
11	117	10.746990122928	21
11	135	11.219696998391	22
11	136	11.295281002941	23
11	137	11.37058416117	24
11	144	11.80767485136	25
11	155	12.102548710025	26
11	156	12.107540723418	27
11	157	12.185482128041	28
11	158	12.246990122928	29
11	174	14.107540723418	30
11	175	14.185482128041	31
11	176	14.246990122928	32
11	187	15.107540723418	33
11	188	15.185482128041	34
11	194	15.246990122928	35
11	205	15.797638403014	36
11	206	15.812711561681	37
11	207	15.816615352748	38
11	208	15.873222407564	39
11	209	15.948525565793	40
11	220	16.107540723418	41
11	221	16.185482128041	42
11	222	16.246990122928	43
11	238	18.107540723418	44
11	239	18.185482128041	45
11	240	18.246990122928	46
11	248	19.50593632351	47
11	252	19.607540723418	48
11	258	19.685482128041	49
11	259	19.746990122928	50
11	275	20.00593632351	51
11	281	20.107540723418	52
11	282	20.185482128041	53
11	283	20.219696998391	54
11	284	20.234770157058	55
11	285	20.238673948125	56
11	286	20.246990122928	57
11	287	20.295281002941	58
11	288	20.37058416117	59
11	301	22.00593632351	60
11	305	22.107540723418	61
11	306	22.185482128041	62
11	321	24.00593632351	63
11	322	24.00593632351	64
11	329	24.107540723418	65
11	330	24.107540723418	66
11	336	24.185482128041	67
11	337	24.185482128041	68
11	348	24.719696998391	69
11	349	24.734770157058	70
11	350	24.738673948125	71
11	351	24.795281002941	72
11	352	24.87058416117	73
11	365	26.00593632351	74
11	369	26.107540723418	75
11	370	26.185482128041	76
11	383	28.00593632351	77
11	387	28.107540723418	78
11	388	28.185482128041	79
11	403	30.122937370225	80
11	410	30.950560477282	81
11	424	31.83315713421	82
11	433	32.054550551651	83
11	439	32.175794817333	84
11	441	32.209351763842	85
11	457	34.175794817333	86
11	464	34.75977424504	87
11	481	36.175794817333	88
11	505	38.175794817333	89
11	529	40.175794817333	90
11	544	41.175794817333	91
11	558	42.175794817333	92
11	582	44.175794817333	93
11	608	45.675794817333	94
11	623	46.175794817333	95
11	647	48.175794817333	96
11	655	48.920043515863	97
11	672	50.175794817333	98
11	673	50.175794817333	99
11	714	52.175794817333	100
11	730	54.175794817333	101
11	737	54.675794817333	102
11	756	56.175794817333	103
11	786	57.669186612749	104
11	796	58.175794817333	105
11	808	59.175794817333	106
11	839	60.175794817333	107
11	859	62.175794817333	108
11	871	63.675794817333	109
11	895	64.175794817333	110
11	921	66.175794817333	111
11	940	68.175794817333	112
11	941	68.175794817333	113
11	985	70.175794817333	114
11	1003	72.175794817333	115
11	1011	72.675794817333	116
11	1049	74.175794817333	117
11	1067	76.175794817333	118
11	1080	77.175794817333	119
11	1113	78.175794817333	120
11	1131	80.175794817333	121
11	1144	81.675794817333	122
11	1169	82.175794817333	123
11	1195	84.175794817333	124
11	1214	86.175794817333	125
11	1215	86.175794817333	126
11	1259	88.175794817333	127
11	1278	90.175794817333	128
11	1287	90.675794817333	129
11	1326	92.175794817333	130
11	1345	94.175794817333	131
11	1359	95.175794817333	132
11	1393	96.175794817333	133
11	1412	98.175794817333	134
11	1426	99.675794817333	135
11	1452	100.175794817333	136
11	1479	102.175794817333	137
11	1499	104.175794817333	138
11	1500	104.175794817333	139
11	1546	106.175794817333	140
11	1565	108.175794817333	141
11	1574	108.675794817333	142
11	1613	110.175794817333	143
11	1632	112.175794817333	144
11	1646	113.175794817333	145
11	1680	114.175794817333	146
11	1699	116.175794817333	147
11	1713	117.675794817333	148
11	1739	118.175794817333	149
11	1766	120.175794817333	150
11	1786	122.175794817333	151
11	1787	122.175794817333	152
11	1831	124.175794817333	153
11	1849	126.175794817333	154
11	1857	126.675794817333	155
11	1895	128.175794817333	156
11	1913	130.175794817333	157
11	1926	131.175794817333	158
11	1959	132.175794817333	159
11	1977	134.175794817333	160
11	1990	135.675794817333	161
11	2015	136.175794817333	162
11	2041	138.175794817333	163
11	2060	140.175794817333	164
11	2061	140.175794817333	165
11	2105	142.175794817333	166
11	2123	144.175794817333	167
11	2131	144.675794817333	168
11	2169	146.175794817333	169
11	2187	148.175794817333	170
11	2200	149.175794817333	171
11	2233	150.175794817333	172
11	2251	152.175794817333	173
11	2264	153.675794817333	174
11	2289	154.175794817333	175
11	2315	156.175794817333	176
11	2334	158.175794817333	177
11	2335	158.175794817333	178
11	2379	160.175794817333	179
11	2412	164.51259729124	180
11	2431	165.635574573688	181
11	2437	165.948933431477	182
11	2449	166.128479236008	183
11	2451	166.181731140843	184
11	2452	166.189987230895	185
11	2456	166.361276945374	186
11	2458	166.422784940261	187
11	2471	168.181731140843	188
11	2475	168.361276945374	189
11	2476	168.422784940261	190
11	2488	169.734593450258	191
11	2498	170.181731140843	192
11	2503	170.361276945374	193
11	2505	170.422784940261	194
11	2510	170.679130842535	195
11	2511	170.681731140843	196
11	2517	170.861276945374	197
11	2519	170.922784940261	198
11	2525	171.106030519635	199
11	2528	171.549017224897	200
11	2536	172.181731140843	201
11	2542	172.361276945374	202
11	2543	172.422784940261	203
11	2557	173.183738567034	204
11	2560	173.737613197384	205
11	2568	174.181731140843	206
11	2572	174.361276945374	207
11	2573	174.422784940261	208
11	2581	175.181731140843	209
11	2585	175.361276945374	210
11	2591	175.422784940261	211
11	2602	175.973433220347	212
11	2603	175.988506379014	213
11	2604	175.992410170081	214
11	2610	176.049017224897	215
11	2611	176.124320383126	216
11	2614	176.181731140843	217
11	2618	176.361276945374	218
11	2619	176.422784940261	219
11	2632	178.181731140843	220
11	2636	178.361276945374	221
11	2637	178.422784940261	222
11	2645	179.681731140843	223
11	2649	179.861276945374	224
11	2655	179.922784940261	225
11	2670	180.181731140843	226
11	2677	180.361276945374	227
11	2678	180.422784940261	228
11	2679	180.473433220347	229
11	2680	180.488506379014	230
11	2681	180.492410170081	231
11	2682	180.549017224897	232
11	2683	180.624320383126	233
11	2696	182.181731140843	234
11	2700	182.283335540751	235
11	2701	182.361276945374	236
11	2702	182.422784940261	237
11	2717	184.181731140843	238
11	2718	184.181731140843	239
11	2725	184.283335540751	240
11	2726	184.283335540751	241
11	2732	184.361276945374	242
11	2733	184.361276945374	243
11	2734	184.422784940261	244
11	2735	184.422784940261	245
11	2746	184.895491815724	246
11	2747	184.910564974391	247
11	2748	184.914468765458	248
11	2749	184.971075820274	249
11	2755	185.046378978503	250
11	2763	186.181731140843	251
11	2767	186.283335540751	252
11	2768	186.361276945374	253
11	2781	188.181731140843	254
11	2785	188.283335540751	255
11	2786	188.361276945374	256
11	2789	188.681731140843	257
11	2793	188.783335540751	258
11	2799	188.861276945374	259
11	2815	189.395491815724	260
11	2816	189.410564974391	261
11	2817	189.414468765458	262
11	2818	189.471075820274	263
11	2819	189.546378978503	264
11	2827	190.181731140843	265
11	2831	190.283335540751	266
11	2832	190.361276945374	267
11	2845	192.181731140843	268
11	2849	192.283335540751	269
11	2850	192.361276945374	270
11	2858	193.181731140843	271
11	2862	193.283335540751	272
11	2868	193.361276945374	273
11	2879	193.895491815724	274
11	2880	193.910564974391	275
11	2881	193.914468765458	276
11	2882	193.971075820274	277
11	2888	194.046378978503	278
11	2891	194.181731140843	279
11	2895	194.283335540751	280
11	2896	194.361276945374	281
11	2909	196.181731140843	282
11	2913	196.283335540751	283
11	2914	196.361276945374	284
11	2922	197.681731140843	285
11	2926	197.783335540751	286
11	2932	197.861276945374	287
11	2948	198.181731140843	288
11	2954	198.283335540751	289
11	2955	198.361276945374	290
11	2956	198.395491815724	291
11	2957	198.410564974391	292
11	2958	198.414468765458	293
11	2959	198.471075820274	294
11	2960	198.546378978503	295
12	34	5.795175922241	1
12	46	6.027973631607	2
12	55	6.752737627694	3
12	78	8.027973631607	4
12	98	10.027973631607	5
12	109	10.527973631607	6
12	138	11.405786198157	7
12	152	12.027973631607	8
12	171	14.027973631607	9
12	184	15.027973631607	10
12	217	16.027973631607	11
12	235	18.027973631607	12
12	249	19.527973631607	13
12	277	20.027973631607	14
12	302	22.027973631607	15
12	323	24.027973631607	16
12	324	24.027973631607	17
12	366	26.027973631607	18
12	384	28.027973631607	19
12	434	32.062301079561	20
12	440	32.183545345243	21
12	458	34.183545345243	22
12	472	35.487152066298	23
12	482	36.183545345243	24
12	506	38.183545345243	25
12	516	38.715770433806	26
12	530	40.183545345243	27
12	545	41.183545345243	28
12	559	42.183545345243	29
12	583	44.183545345243	30
12	609	45.683545345243	31
12	624	46.183545345243	32
12	648	48.183545345243	33
12	674	50.183545345243	34
12	675	50.183545345243	35
12	715	52.183545345243	36
12	731	54.183545345243	37
12	738	54.683545345243	38
12	757	56.183545345243	39
12	784	57.423830419869	40
12	797	58.183545345243	41
12	809	59.183545345243	42
12	840	60.183545345243	43
12	860	62.183545345243	44
12	872	63.683545345243	45
12	896	64.183545345243	46
12	922	66.183545345243	47
12	942	68.183545345243	48
12	943	68.183545345243	49
12	986	70.183545345243	50
12	1004	72.183545345243	51
12	1012	72.683545345243	52
12	1050	74.183545345243	53
12	1068	76.183545345243	54
12	1081	77.183545345243	55
12	1114	78.183545345243	56
12	1132	80.183545345243	57
12	1145	81.683545345243	58
12	1170	82.183545345243	59
12	1196	84.183545345243	60
12	1216	86.183545345243	61
12	1217	86.183545345243	62
12	1260	88.183545345243	63
12	1279	90.183545345243	64
12	1288	90.683545345243	65
12	1327	92.183545345243	66
12	1346	94.183545345243	67
12	1360	95.183545345243	68
12	1394	96.183545345243	69
12	1413	98.183545345243	70
12	1427	99.683545345243	71
12	1453	100.183545345243	72
12	1480	102.183545345243	73
12	1501	104.183545345243	74
12	1502	104.183545345243	75
12	1547	106.183545345243	76
12	1566	108.183545345243	77
12	1575	108.683545345243	78
12	1614	110.183545345243	79
12	1633	112.183545345243	80
12	1647	113.183545345243	81
12	1681	114.183545345243	82
12	1700	116.183545345243	83
12	1714	117.683545345243	84
12	1740	118.183545345243	85
12	1767	120.183545345243	86
12	1788	122.183545345243	87
12	1789	122.183545345243	88
12	1832	124.183545345243	89
12	1850	126.183545345243	90
12	1858	126.683545345243	91
12	1896	128.183545345243	92
12	1914	130.183545345243	93
12	1927	131.183545345243	94
12	1960	132.183545345243	95
12	1978	134.183545345243	96
12	1991	135.683545345243	97
12	2016	136.183545345243	98
12	2042	138.183545345243	99
12	2062	140.183545345243	100
12	2063	140.183545345243	101
12	2106	142.183545345243	102
12	2124	144.183545345243	103
12	2132	144.683545345243	104
12	2170	146.183545345243	105
12	2188	148.183545345243	106
12	2201	149.183545345243	107
12	2234	150.183545345243	108
12	2252	152.183545345243	109
12	2265	153.683545345243	110
12	2290	154.183545345243	111
12	2316	156.183545345243	112
12	2336	158.183545345243	113
12	2337	158.183545345243	114
12	2380	160.183545345243	115
12	2410	164.341411660725	116
12	2438	165.970970739574	117
12	2453	166.20376844894	118
12	2472	168.20376844894	119
12	2499	170.20376844894	120
12	2512	170.70376844894	121
12	2538	172.20376844894	122
12	2550	172.905036681404	123
12	2569	174.20376844894	124
12	2582	175.20376844894	125
12	2615	176.20376844894	126
12	2633	178.20376844894	127
12	2646	179.70376844894	128
12	2671	180.20376844894	129
12	2697	182.20376844894	130
12	2719	184.20376844894	131
12	2720	184.20376844894	132
12	2764	186.20376844894	133
12	2782	188.20376844894	134
12	2790	188.70376844894	135
12	2828	190.20376844894	136
12	2846	192.20376844894	137
12	2859	193.20376844894	138
12	2892	194.20376844894	139
12	2910	196.20376844894	140
12	2923	197.70376844894	141
12	2950	198.20376844894	142
13	34	5.795175922241	1
13	46	6.027973631607	2
13	78	8.027973631607	3
13	98	10.027973631607	4
13	109	10.527973631607	5
13	152	12.027973631607	6
13	171	14.027973631607	7
13	184	15.027973631607	8
13	217	16.027973631607	9
13	235	18.027973631607	10
13	249	19.527973631607	11
13	277	20.027973631607	12
13	302	22.027973631607	13
13	323	24.027973631607	14
13	324	24.027973631607	15
13	366	26.027973631607	16
13	384	28.027973631607	17
13	434	32.062301079561	18
13	440	32.183545345243	19
13	757	56.183545345243	20
13	797	58.183545345243	21
13	809	59.183545345243	22
13	840	60.183545345243	23
13	860	62.183545345243	24
13	872	63.683545345243	25
13	896	64.183545345243	26
13	922	66.183545345243	27
13	942	68.183545345243	28
13	943	68.183545345243	29
13	986	70.183545345243	30
13	1004	72.183545345243	31
13	1012	72.683545345243	32
13	1050	74.183545345243	33
13	1068	76.183545345243	34
13	1081	77.183545345243	35
13	1114	78.183545345243	36
13	1132	80.183545345243	37
13	1145	81.683545345243	38
13	1170	82.183545345243	39
13	1196	84.183545345243	40
13	1216	86.183545345243	41
13	1217	86.183545345243	42
13	1260	88.183545345243	43
13	1279	90.183545345243	44
13	1288	90.683545345243	45
13	1327	92.183545345243	46
13	1346	94.183545345243	47
13	1360	95.183545345243	48
13	1394	96.183545345243	49
13	1413	98.183545345243	50
13	1427	99.683545345243	51
13	1453	100.183545345243	52
13	1480	102.183545345243	53
13	1501	104.183545345243	54
13	1502	104.183545345243	55
13	1547	106.183545345243	56
13	1566	108.183545345243	57
13	1575	108.683545345243	58
13	1614	110.183545345243	59
13	1633	112.183545345243	60
13	1647	113.183545345243	61
13	1681	114.183545345243	62
13	1700	116.183545345243	63
13	1714	117.683545345243	64
13	1740	118.183545345243	65
13	1767	120.183545345243	66
13	1788	122.183545345243	67
13	1789	122.183545345243	68
13	1832	124.183545345243	69
13	1850	126.183545345243	70
13	1858	126.683545345243	71
13	1896	128.183545345243	72
13	1914	130.183545345243	73
13	1927	131.183545345243	74
13	1960	132.183545345243	75
13	1978	134.183545345243	76
13	1991	135.683545345243	77
13	2016	136.183545345243	78
13	2042	138.183545345243	79
13	2062	140.183545345243	80
13	2063	140.183545345243	81
13	2106	142.183545345243	82
13	2124	144.183545345243	83
13	2132	144.683545345243	84
13	2170	146.183545345243	85
13	2188	148.183545345243	86
13	2201	149.183545345243	87
13	2234	150.183545345243	88
13	2252	152.183545345243	89
13	2265	153.683545345243	90
13	2290	154.183545345243	91
13	2316	156.183545345243	92
13	2336	158.183545345243	93
13	2337	158.183545345243	94
13	2380	160.183545345243	95
13	2438	165.970970739574	96
13	2453	166.20376844894	97
13	2472	168.20376844894	98
13	2499	170.20376844894	99
13	2512	170.70376844894	100
13	2538	172.20376844894	101
13	2569	174.20376844894	102
13	2582	175.20376844894	103
13	2615	176.20376844894	104
13	2633	178.20376844894	105
13	2646	179.70376844894	106
13	2671	180.20376844894	107
13	2697	182.20376844894	108
13	2719	184.20376844894	109
13	2720	184.20376844894	110
13	2764	186.20376844894	111
13	2782	188.20376844894	112
13	2790	188.70376844894	113
13	2828	190.20376844894	114
13	2846	192.20376844894	115
13	2859	193.20376844894	116
13	2892	194.20376844894	117
13	2910	196.20376844894	118
13	2923	197.70376844894	119
13	2950	198.20376844894	120
14	34	5.795175922241	1
14	434	32.062301079561	2
14	2438	165.970970739574	3
15	35	5.821931320105	1
15	47	6.054729029471	2
15	79	8.054729029471	3
15	100	10.054729029471	4
15	110	10.554729029471	5
15	153	12.054729029471	6
15	172	14.054729029471	7
15	185	15.054729029471	8
15	218	16.054729029471	9
15	236	18.054729029471	10
15	250	19.554729029471	11
15	278	20.054729029471	12
15	303	22.054729029471	13
15	325	24.054729029471	14
15	326	24.054729029471	15
15	367	26.054729029471	16
15	385	28.054729029471	17
15	437	32.120025414414	18
15	444	32.241269680096	19
15	460	34.241269680096	20
15	484	36.241269680096	21
15	508	38.241269680096	22
15	532	40.241269680096	23
15	548	41.241269680096	24
15	561	42.241269680096	25
15	585	44.241269680096	26
15	604	45.40492794021	27
15	612	45.741269680096	28
15	626	46.241269680096	29
15	650	48.241269680096	30
15	677	50.241269680096	31
15	678	50.241269680096	32
15	717	52.241269680096	33
15	733	54.241269680096	34
15	740	54.741269680096	35
15	762	56.241269680096	36
15	767	56.553173768326	37
15	800	58.241269680096	38
15	811	59.241269680096	39
15	843	60.241269680096	40
15	863	62.241269680096	41
15	875	63.741269680096	42
15	900	64.241269680096	43
15	925	66.241269680096	44
15	948	68.241269680096	45
15	949	68.241269680096	46
15	989	70.241269680096	47
15	1007	72.241269680096	48
15	1015	72.741269680096	49
15	1053	74.241269680096	50
15	1071	76.241269680096	51
15	1084	77.241269680096	52
15	1117	78.241269680096	53
15	1135	80.241269680096	54
15	1148	81.741269680096	55
15	1174	82.241269680096	56
15	1199	84.241269680096	57
15	1222	86.241269680096	58
15	1223	86.241269680096	59
15	1263	88.241269680096	60
15	1282	90.241269680096	61
15	1291	90.741269680096	62
15	1330	92.241269680096	63
15	1349	94.241269680096	64
15	1363	95.241269680096	65
15	1397	96.241269680096	66
15	1416	98.241269680096	67
15	1430	99.741269680096	68
15	1458	100.241269680096	69
15	1483	102.241269680096	70
15	1507	104.241269680096	71
15	1508	104.241269680096	72
15	1550	106.241269680096	73
15	1569	108.241269680096	74
15	1578	108.741269680096	75
15	1617	110.241269680096	76
15	1636	112.241269680096	77
15	1650	113.241269680096	78
15	1684	114.241269680096	79
15	1703	116.241269680096	80
15	1717	117.741269680096	81
15	1745	118.241269680096	82
15	1770	120.241269680096	83
15	1794	122.241269680096	84
15	1795	122.241269680096	85
15	1835	124.241269680096	86
15	1853	126.241269680096	87
15	1861	126.741269680096	88
15	1899	128.241269680096	89
15	1917	130.241269680096	90
15	1930	131.241269680096	91
15	1963	132.241269680096	92
15	1981	134.241269680096	93
15	1994	135.741269680096	94
15	2020	136.241269680096	95
15	2045	138.241269680096	96
15	2068	140.241269680096	97
15	2069	140.241269680096	98
15	2109	142.241269680096	99
15	2127	144.241269680096	100
15	2135	144.741269680096	101
15	2173	146.241269680096	102
15	2191	148.241269680096	103
15	2204	149.241269680096	104
15	2237	150.241269680096	105
15	2255	152.241269680096	106
15	2268	153.741269680096	107
15	2294	154.241269680096	108
15	2319	156.241269680096	109
15	2342	158.241269680096	110
15	2343	158.241269680096	111
15	2383	160.241269680096	112
15	2439	165.997726137438	113
15	2454	166.230523846804	114
15	2473	168.230523846804	115
15	2500	170.230523846804	116
15	2513	170.730523846804	117
15	2540	172.230523846804	118
15	2570	174.230523846804	119
15	2583	175.230523846804	120
15	2616	176.230523846804	121
15	2634	178.230523846804	122
15	2647	179.730523846804	123
15	2672	180.230523846804	124
15	2698	182.230523846804	125
15	2721	184.230523846804	126
15	2722	184.230523846804	127
15	2765	186.230523846804	128
15	2783	188.230523846804	129
15	2791	188.730523846804	130
15	2829	190.230523846804	131
15	2847	192.230523846804	132
15	2860	193.230523846804	133
15	2893	194.230523846804	134
15	2911	196.230523846804	135
15	2924	197.730523846804	136
15	2951	198.230523846804	137
16	38	5.952684418675	1
16	38	5.952684418675	2
16	38	5.952684418675	3
16	38	5.952684418675	4
16	70	7.952684418675	5
16	70	7.952684418675	6
16	70	7.952684418675	7
16	70	7.952684418675	8
16	89	9.952684418675	9
16	89	9.952684418675	10
16	89	9.952684418675	11
16	89	9.952684418675	12
16	106	10.452684418675	13
16	106	10.452684418675	14
16	106	10.452684418675	15
16	106	10.452684418675	16
16	145	11.952684418675	17
16	145	11.952684418675	18
16	145	11.952684418675	19
16	145	11.952684418675	20
16	164	13.952684418675	21
16	164	13.952684418675	22
16	164	13.952684418675	23
16	164	13.952684418675	24
16	177	14.952684418675	25
16	177	14.952684418675	26
16	177	14.952684418675	27
16	177	14.952684418675	28
16	210	15.952684418675	29
16	210	15.952684418675	30
16	210	15.952684418675	31
16	210	15.952684418675	32
16	228	17.952684418675	33
16	228	17.952684418675	34
16	228	17.952684418675	35
16	228	17.952684418675	36
16	246	19.452684418675	37
16	246	19.452684418675	38
16	246	19.452684418675	39
16	246	19.452684418675	40
16	267	19.952684418675	41
16	267	19.952684418675	42
16	267	19.952684418675	43
16	267	19.952684418675	44
16	294	21.952684418675	45
16	294	21.952684418675	46
16	294	21.952684418675	47
16	294	21.952684418675	48
16	312	23.952684418675	49
16	312	23.952684418675	50
16	312	23.952684418675	51
16	312	23.952684418675	52
16	313	23.952684418675	53
16	313	23.952684418675	54
16	313	23.952684418675	55
16	313	23.952684418675	56
16	358	25.952684418675	57
16	358	25.952684418675	58
16	358	25.952684418675	59
16	358	25.952684418675	60
16	376	27.952684418675	61
16	376	27.952684418675	62
16	376	27.952684418675	63
16	376	27.952684418675	64
16	2449	166.128479236008	65
16	2449	166.128479236008	66
16	2449	166.128479236008	67
16	2449	166.128479236008	68
16	2469	168.128479236008	69
16	2469	168.128479236008	70
16	2469	168.128479236008	71
16	2469	168.128479236008	72
16	2496	170.128479236008	73
16	2496	170.128479236008	74
16	2496	170.128479236008	75
16	2496	170.128479236008	76
16	2508	170.628479236008	77
16	2508	170.628479236008	78
16	2508	170.628479236008	79
16	2508	170.628479236008	80
16	2534	172.128479236008	81
16	2534	172.128479236008	82
16	2534	172.128479236008	83
16	2534	172.128479236008	84
16	2566	174.128479236008	85
16	2566	174.128479236008	86
16	2566	174.128479236008	87
16	2566	174.128479236008	88
16	2579	175.128479236008	89
16	2579	175.128479236008	90
16	2579	175.128479236008	91
16	2579	175.128479236008	92
16	2612	176.128479236008	93
16	2612	176.128479236008	94
16	2612	176.128479236008	95
16	2612	176.128479236008	96
16	2630	178.128479236008	97
16	2630	178.128479236008	98
16	2630	178.128479236008	99
16	2630	178.128479236008	100
16	2643	179.628479236008	101
16	2643	179.628479236008	102
16	2643	179.628479236008	103
16	2643	179.628479236008	104
16	2661	180.128479236008	105
16	2661	180.128479236008	106
16	2661	180.128479236008	107
16	2661	180.128479236008	108
16	2694	182.128479236008	109
16	2694	182.128479236008	110
16	2694	182.128479236008	111
16	2694	182.128479236008	112
16	2713	184.128479236008	113
16	2713	184.128479236008	114
16	2713	184.128479236008	115
16	2713	184.128479236008	116
16	2714	184.128479236008	117
16	2714	184.128479236008	118
16	2714	184.128479236008	119
16	2714	184.128479236008	120
16	2761	186.128479236008	121
16	2761	186.128479236008	122
16	2761	186.128479236008	123
16	2761	186.128479236008	124
16	2779	188.128479236008	125
16	2779	188.128479236008	126
16	2779	188.128479236008	127
16	2779	188.128479236008	128
16	2787	188.628479236008	129
16	2787	188.628479236008	130
16	2787	188.628479236008	131
16	2787	188.628479236008	132
16	2825	190.128479236008	133
16	2825	190.128479236008	134
16	2825	190.128479236008	135
16	2825	190.128479236008	136
16	2843	192.128479236008	137
16	2843	192.128479236008	138
16	2843	192.128479236008	139
16	2843	192.128479236008	140
16	2856	193.128479236008	141
16	2856	193.128479236008	142
16	2856	193.128479236008	143
16	2856	193.128479236008	144
16	2889	194.128479236008	145
16	2889	194.128479236008	146
16	2889	194.128479236008	147
16	2889	194.128479236008	148
16	2907	196.128479236008	149
16	2907	196.128479236008	150
16	2907	196.128479236008	151
16	2907	196.128479236008	152
16	2920	197.628479236008	153
16	2920	197.628479236008	154
16	2920	197.628479236008	155
16	2920	197.628479236008	156
16	2945	198.128479236008	157
16	2945	198.128479236008	158
16	2945	198.128479236008	159
16	2945	198.128479236008	160
17	39	5.953705698095	1
17	71	7.953705698095	2
17	90	9.953705698095	3
17	107	10.453705698095	4
17	247	19.453705698095	5
17	268	19.953705698095	6
17	295	21.953705698095	7
17	314	23.953705698095	8
17	315	23.953705698095	9
17	359	25.953705698095	10
17	377	27.953705698095	11
17	443	32.234461776898	12
17	459	34.234461776898	13
17	483	36.234461776898	14
17	507	38.234461776898	15
17	531	40.234461776898	16
17	547	41.234461776898	17
17	560	42.234461776898	18
17	584	44.234461776898	19
17	610	45.734461776898	20
17	625	46.234461776898	21
17	732	54.234461776898	22
17	739	54.734461776898	23
17	761	56.234461776898	24
17	799	58.234461776898	25
17	842	60.234461776898	26
17	862	62.234461776898	27
17	874	63.734461776898	28
17	899	64.234461776898	29
17	924	66.234461776898	30
17	946	68.234461776898	31
17	947	68.234461776898	32
17	988	70.234461776898	33
17	1006	72.234461776898	34
17	1014	72.734461776898	35
17	1052	74.234461776898	36
17	1070	76.234461776898	37
17	1083	77.234461776898	38
17	1116	78.234461776898	39
17	1134	80.234461776898	40
17	1147	81.734461776898	41
17	1173	82.234461776898	42
17	1198	84.234461776898	43
17	1220	86.234461776898	44
17	1221	86.234461776898	45
17	1262	88.234461776898	46
17	1281	90.234461776898	47
17	1290	90.734461776898	48
17	1329	92.234461776898	49
17	1348	94.234461776898	50
17	1362	95.234461776898	51
17	1396	96.234461776898	52
17	1415	98.234461776898	53
17	1429	99.734461776898	54
17	1457	100.234461776898	55
17	1482	102.234461776898	56
17	1505	104.234461776898	57
17	1506	104.234461776898	58
17	1549	106.234461776898	59
17	1568	108.234461776898	60
17	1577	108.734461776898	61
17	1616	110.234461776898	62
17	1635	112.234461776898	63
17	1649	113.234461776898	64
17	1683	114.234461776898	65
17	1702	116.234461776898	66
17	1716	117.734461776898	67
17	1744	118.234461776898	68
17	1769	120.234461776898	69
17	1792	122.234461776898	70
17	1793	122.234461776898	71
17	1834	124.234461776898	72
17	1852	126.234461776898	73
17	1860	126.734461776898	74
17	1898	128.234461776898	75
17	1916	130.234461776898	76
17	1929	131.234461776898	77
17	1962	132.234461776898	78
17	1980	134.234461776898	79
17	1993	135.734461776898	80
17	2019	136.234461776898	81
17	2044	138.234461776898	82
17	2066	140.234461776898	83
17	2067	140.234461776898	84
17	2108	142.234461776898	85
17	2126	144.234461776898	86
17	2134	144.734461776898	87
17	2172	146.234461776898	88
17	2190	148.234461776898	89
17	2203	149.234461776898	90
17	2236	150.234461776898	91
17	2254	152.234461776898	92
17	2267	153.734461776898	93
17	2293	154.234461776898	94
17	2318	156.234461776898	95
17	2340	158.234461776898	96
17	2341	158.234461776898	97
17	2382	160.234461776898	98
17	2450	166.129500515428	99
17	2470	168.129500515428	100
17	2497	170.129500515428	101
17	2509	170.629500515428	102
17	2535	172.129500515428	103
17	2567	174.129500515428	104
17	2580	175.129500515428	105
17	2613	176.129500515428	106
17	2631	178.129500515428	107
17	2644	179.629500515428	108
17	2662	180.129500515428	109
17	2695	182.129500515428	110
17	2715	184.129500515428	111
17	2716	184.129500515428	112
17	2762	186.129500515428	113
17	2780	188.129500515428	114
17	2788	188.629500515428	115
17	2826	190.129500515428	116
17	2844	192.129500515428	117
17	2857	193.129500515428	118
17	2890	194.129500515428	119
17	2908	196.129500515428	120
17	2921	197.629500515428	121
17	2946	198.129500515428	122
18	46	6.027973631607	1
18	78	8.027973631607	2
18	98	10.027973631607	3
18	109	10.527973631607	4
18	152	12.027973631607	5
18	171	14.027973631607	6
18	184	15.027973631607	7
18	217	16.027973631607	8
18	235	18.027973631607	9
18	249	19.527973631607	10
18	277	20.027973631607	11
18	302	22.027973631607	12
18	323	24.027973631607	13
18	324	24.027973631607	14
18	366	26.027973631607	15
18	384	28.027973631607	16
18	440	32.183545345243	17
18	757	56.183545345243	18
18	797	58.183545345243	19
18	809	59.183545345243	20
18	840	60.183545345243	21
18	860	62.183545345243	22
18	872	63.683545345243	23
18	896	64.183545345243	24
18	922	66.183545345243	25
18	942	68.183545345243	26
18	943	68.183545345243	27
18	986	70.183545345243	28
18	1004	72.183545345243	29
18	1012	72.683545345243	30
18	1050	74.183545345243	31
18	1068	76.183545345243	32
18	1081	77.183545345243	33
18	1114	78.183545345243	34
18	1132	80.183545345243	35
18	1145	81.683545345243	36
18	1170	82.183545345243	37
18	1196	84.183545345243	38
18	1216	86.183545345243	39
18	1217	86.183545345243	40
18	1260	88.183545345243	41
18	1279	90.183545345243	42
18	1288	90.683545345243	43
18	1327	92.183545345243	44
18	1346	94.183545345243	45
18	1360	95.183545345243	46
18	1394	96.183545345243	47
18	1413	98.183545345243	48
18	1427	99.683545345243	49
18	1453	100.183545345243	50
18	1480	102.183545345243	51
18	1501	104.183545345243	52
18	1502	104.183545345243	53
18	1547	106.183545345243	54
18	1566	108.183545345243	55
18	1575	108.683545345243	56
18	1614	110.183545345243	57
18	1633	112.183545345243	58
18	1647	113.183545345243	59
18	1681	114.183545345243	60
18	1700	116.183545345243	61
18	1714	117.683545345243	62
18	1740	118.183545345243	63
18	1767	120.183545345243	64
18	1788	122.183545345243	65
18	1789	122.183545345243	66
18	1832	124.183545345243	67
18	1850	126.183545345243	68
18	1858	126.683545345243	69
18	1896	128.183545345243	70
18	1914	130.183545345243	71
18	1927	131.183545345243	72
18	1960	132.183545345243	73
18	1978	134.183545345243	74
18	1991	135.683545345243	75
18	2016	136.183545345243	76
18	2042	138.183545345243	77
18	2062	140.183545345243	78
18	2063	140.183545345243	79
18	2106	142.183545345243	80
18	2124	144.183545345243	81
18	2132	144.683545345243	82
18	2170	146.183545345243	83
18	2188	148.183545345243	84
18	2201	149.183545345243	85
18	2234	150.183545345243	86
18	2252	152.183545345243	87
18	2265	153.683545345243	88
18	2290	154.183545345243	89
18	2316	156.183545345243	90
18	2336	158.183545345243	91
18	2337	158.183545345243	92
18	2380	160.183545345243	93
18	2453	166.20376844894	94
18	2472	168.20376844894	95
18	2499	170.20376844894	96
18	2512	170.70376844894	97
18	2538	172.20376844894	98
18	2569	174.20376844894	99
18	2582	175.20376844894	100
18	2615	176.20376844894	101
18	2633	178.20376844894	102
18	2646	179.70376844894	103
18	2671	180.20376844894	104
18	2697	182.20376844894	105
18	2719	184.20376844894	106
18	2720	184.20376844894	107
18	2764	186.20376844894	108
18	2782	188.20376844894	109
18	2790	188.70376844894	110
18	2828	190.20376844894	111
18	2846	192.20376844894	112
18	2859	193.20376844894	113
18	2892	194.20376844894	114
18	2910	196.20376844894	115
18	2923	197.70376844894	116
18	2950	198.20376844894	117
19	48	6.082597122967	1
19	80	8.082597122967	2
19	101	10.082597122967	3
19	111	10.582597122967	4
19	154	12.082597122967	5
19	173	14.082597122967	6
19	186	15.082597122967	7
19	219	16.082597122967	8
19	237	18.082597122967	9
19	251	19.582597122967	10
19	280	20.082597122967	11
19	304	22.082597122967	12
19	327	24.082597122967	13
19	328	24.082597122967	14
19	368	26.082597122967	15
19	386	28.082597122967	16
19	432	32.0296069512	17
19	432	32.0296069512	18
19	432	32.0296069512	19
19	432	32.0296069512	20
19	438	32.150851216882	21
19	438	32.150851216882	22
19	438	32.150851216882	23
19	438	32.150851216882	24
19	456	34.150851216882	25
19	456	34.150851216882	26
19	456	34.150851216882	27
19	456	34.150851216882	28
19	479	36.150851216882	29
19	479	36.150851216882	30
19	479	36.150851216882	31
19	479	36.150851216882	32
19	504	38.150851216882	33
19	504	38.150851216882	34
19	504	38.150851216882	35
19	504	38.150851216882	36
19	528	40.150851216882	37
19	528	40.150851216882	38
19	528	40.150851216882	39
19	528	40.150851216882	40
19	543	41.150851216882	41
19	543	41.150851216882	42
19	543	41.150851216882	43
19	543	41.150851216882	44
19	557	42.150851216882	45
19	557	42.150851216882	46
19	557	42.150851216882	47
19	557	42.150851216882	48
19	581	44.150851216882	49
19	581	44.150851216882	50
19	581	44.150851216882	51
19	581	44.150851216882	52
19	607	45.650851216882	53
19	607	45.650851216882	54
19	607	45.650851216882	55
19	607	45.650851216882	56
19	622	46.150851216882	57
19	622	46.150851216882	58
19	622	46.150851216882	59
19	622	46.150851216882	60
19	646	48.150851216882	61
19	646	48.150851216882	62
19	646	48.150851216882	63
19	646	48.150851216882	64
19	670	50.150851216882	65
19	670	50.150851216882	66
19	670	50.150851216882	67
19	671	50.150851216882	68
19	671	50.150851216882	69
19	671	50.150851216882	70
19	671	50.150851216882	71
19	681	50.305707521625	72
19	681	50.305707521625	73
19	681	50.305707521625	74
19	681	50.305707521625	75
19	681	50.305707521625	76
19	713	52.150851216882	77
19	713	52.150851216882	78
19	713	52.150851216882	79
19	713	52.150851216882	80
19	729	54.150851216882	81
19	729	54.150851216882	82
19	729	54.150851216882	83
19	729	54.150851216882	84
19	736	54.650851216882	85
19	736	54.650851216882	86
19	736	54.650851216882	87
19	736	54.650851216882	88
19	755	56.150851216882	89
19	755	56.150851216882	90
19	755	56.150851216882	91
19	755	56.150851216882	92
19	795	58.150851216882	93
19	795	58.150851216882	94
19	795	58.150851216882	95
19	795	58.150851216882	96
19	807	59.150851216882	97
19	807	59.150851216882	98
19	807	59.150851216882	99
19	810	59.225516987888	100
19	810	59.225516987888	101
19	810	59.225516987888	102
19	810	59.225516987888	103
19	810	59.225516987888	104
19	838	60.150851216882	105
19	838	60.150851216882	106
19	838	60.150851216882	107
19	838	60.150851216882	108
19	858	62.150851216882	109
19	858	62.150851216882	110
19	858	62.150851216882	111
19	858	62.150851216882	112
19	870	63.650851216882	113
19	870	63.650851216882	114
19	870	63.650851216882	115
19	870	63.650851216882	116
19	876	63.772095482564	117
19	876	63.772095482564	118
19	876	63.772095482564	119
19	876	63.772095482564	120
19	876	63.772095482564	121
19	892	64.150851216882	122
19	892	64.150851216882	123
19	892	64.150851216882	124
19	892	64.150851216882	125
19	920	66.150851216882	126
19	920	66.150851216882	127
19	920	66.150851216882	128
19	920	66.150851216882	129
19	938	68.150851216882	130
19	938	68.150851216882	131
19	938	68.150851216882	132
19	938	68.150851216882	133
19	939	68.150851216882	134
19	939	68.150851216882	135
19	939	68.150851216882	136
19	939	68.150851216882	137
19	950	68.272095482564	138
19	950	68.272095482564	139
19	950	68.272095482564	140
19	950	68.272095482564	141
19	950	68.272095482564	142
19	984	70.150851216882	143
19	984	70.150851216882	144
19	984	70.150851216882	145
19	984	70.150851216882	146
19	1002	72.150851216882	147
19	1002	72.150851216882	148
19	1002	72.150851216882	149
19	1002	72.150851216882	150
19	1010	72.650851216882	151
19	1010	72.650851216882	152
19	1010	72.650851216882	153
19	1010	72.650851216882	154
19	1016	72.772095482564	155
19	1016	72.772095482564	156
19	1016	72.772095482564	157
19	1016	72.772095482564	158
19	1016	72.772095482564	159
19	1048	74.150851216882	160
19	1048	74.150851216882	161
19	1048	74.150851216882	162
19	1048	74.150851216882	163
19	1066	76.150851216882	164
19	1066	76.150851216882	165
19	1066	76.150851216882	166
19	1066	76.150851216882	167
19	1079	77.150851216882	168
19	1079	77.150851216882	169
19	1079	77.150851216882	170
19	1079	77.150851216882	171
19	1085	77.272095482564	172
19	1085	77.272095482564	173
19	1085	77.272095482564	174
19	1085	77.272095482564	175
19	1085	77.272095482564	176
19	1112	78.150851216882	177
19	1112	78.150851216882	178
19	1112	78.150851216882	179
19	1112	78.150851216882	180
19	1130	80.150851216882	181
19	1130	80.150851216882	182
19	1130	80.150851216882	183
19	1130	80.150851216882	184
19	1143	81.650851216882	185
19	1143	81.650851216882	186
19	1143	81.650851216882	187
19	1143	81.650851216882	188
19	1149	81.772095482564	189
19	1149	81.772095482564	190
19	1149	81.772095482564	191
19	1149	81.772095482564	192
19	1149	81.772095482564	193
19	1166	82.150851216882	194
19	1166	82.150851216882	195
19	1166	82.150851216882	196
19	1166	82.150851216882	197
19	1194	84.150851216882	198
19	1194	84.150851216882	199
19	1194	84.150851216882	200
19	1194	84.150851216882	201
19	1212	86.150851216882	202
19	1212	86.150851216882	203
19	1212	86.150851216882	204
19	1212	86.150851216882	205
19	1213	86.150851216882	206
19	1213	86.150851216882	207
19	1213	86.150851216882	208
19	1213	86.150851216882	209
19	1224	86.272095482564	210
19	1224	86.272095482564	211
19	1224	86.272095482564	212
19	1224	86.272095482564	213
19	1224	86.272095482564	214
19	1258	88.150851216882	215
19	1258	88.150851216882	216
19	1258	88.150851216882	217
19	1258	88.150851216882	218
19	1277	90.150851216882	219
19	1277	90.150851216882	220
19	1277	90.150851216882	221
19	1277	90.150851216882	222
19	1286	90.650851216882	223
19	1286	90.650851216882	224
19	1286	90.650851216882	225
19	1286	90.650851216882	226
19	1293	90.772095482564	227
19	1293	90.772095482564	228
19	1293	90.772095482564	229
19	1293	90.772095482564	230
19	1293	90.772095482564	231
19	1325	92.150851216882	232
19	1325	92.150851216882	233
19	1325	92.150851216882	234
19	1325	92.150851216882	235
19	1344	94.150851216882	236
19	1344	94.150851216882	237
19	1344	94.150851216882	238
19	1344	94.150851216882	239
19	1358	95.150851216882	240
19	1358	95.150851216882	241
19	1358	95.150851216882	242
19	1358	95.150851216882	243
19	1365	95.272095482564	244
19	1365	95.272095482564	245
19	1365	95.272095482564	246
19	1365	95.272095482564	247
19	1365	95.272095482564	248
19	1392	96.150851216882	249
19	1392	96.150851216882	250
19	1392	96.150851216882	251
19	1392	96.150851216882	252
19	1411	98.150851216882	253
19	1411	98.150851216882	254
19	1411	98.150851216882	255
19	1411	98.150851216882	256
19	1425	99.650851216882	257
19	1425	99.650851216882	258
19	1425	99.650851216882	259
19	1425	99.650851216882	260
19	1431	99.744953947869	261
19	1431	99.744953947869	262
19	1431	99.744953947869	263
19	1431	99.744953947869	264
19	1431	99.744953947869	265
19	1451	100.150851216882	266
19	1451	100.150851216882	267
19	1451	100.150851216882	268
19	1451	100.150851216882	269
19	1478	102.150851216882	270
19	1478	102.150851216882	271
19	1478	102.150851216882	272
19	1478	102.150851216882	273
19	1497	104.150851216882	274
19	1497	104.150851216882	275
19	1497	104.150851216882	276
19	1497	104.150851216882	277
19	1498	104.150851216882	278
19	1498	104.150851216882	279
19	1498	104.150851216882	280
19	1498	104.150851216882	281
19	1509	104.244953947869	282
19	1509	104.244953947869	283
19	1509	104.244953947869	284
19	1509	104.244953947869	285
19	1509	104.244953947869	286
19	1545	106.150851216882	287
19	1545	106.150851216882	288
19	1545	106.150851216882	289
19	1545	106.150851216882	290
19	1564	108.150851216882	291
19	1564	108.150851216882	292
19	1564	108.150851216882	293
19	1564	108.150851216882	294
19	1573	108.650851216882	295
19	1573	108.650851216882	296
19	1573	108.650851216882	297
19	1573	108.650851216882	298
19	1579	108.744953947869	299
19	1579	108.744953947869	300
19	1579	108.744953947869	301
19	1579	108.744953947869	302
19	1579	108.744953947869	303
19	1612	110.150851216882	304
19	1612	110.150851216882	305
19	1612	110.150851216882	306
19	1612	110.150851216882	307
19	1631	112.150851216882	308
19	1631	112.150851216882	309
19	1631	112.150851216882	310
19	1631	112.150851216882	311
19	1645	113.150851216882	312
19	1645	113.150851216882	313
19	1645	113.150851216882	314
19	1645	113.150851216882	315
19	1651	113.244953947869	316
19	1651	113.244953947869	317
19	1651	113.244953947869	318
19	1651	113.244953947869	319
19	1651	113.244953947869	320
19	1679	114.150851216882	321
19	1679	114.150851216882	322
19	1679	114.150851216882	323
19	1679	114.150851216882	324
19	1698	116.150851216882	325
19	1698	116.150851216882	326
19	1698	116.150851216882	327
19	1698	116.150851216882	328
19	1712	117.650851216882	329
19	1712	117.650851216882	330
19	1712	117.650851216882	331
19	1712	117.650851216882	332
19	1718	117.744953947869	333
19	1718	117.744953947869	334
19	1718	117.744953947869	335
19	1718	117.744953947869	336
19	1718	117.744953947869	337
19	1738	118.150851216882	338
19	1738	118.150851216882	339
19	1738	118.150851216882	340
19	1738	118.150851216882	341
19	1765	120.150851216882	342
19	1765	120.150851216882	343
19	1765	120.150851216882	344
19	1765	120.150851216882	345
19	1784	122.150851216882	346
19	1784	122.150851216882	347
19	1784	122.150851216882	348
19	1784	122.150851216882	349
19	1785	122.150851216882	350
19	1785	122.150851216882	351
19	1785	122.150851216882	352
19	1785	122.150851216882	353
19	1796	122.272095482564	354
19	1796	122.272095482564	355
19	1796	122.272095482564	356
19	1796	122.272095482564	357
19	1796	122.272095482564	358
19	1830	124.150851216882	359
19	1830	124.150851216882	360
19	1830	124.150851216882	361
19	1830	124.150851216882	362
19	1848	126.150851216882	363
19	1848	126.150851216882	364
19	1848	126.150851216882	365
19	1848	126.150851216882	366
19	1856	126.650851216882	367
19	1856	126.650851216882	368
19	1856	126.650851216882	369
19	1856	126.650851216882	370
19	1862	126.772095482564	371
19	1862	126.772095482564	372
19	1862	126.772095482564	373
19	1862	126.772095482564	374
19	1862	126.772095482564	375
19	1894	128.150851216882	376
19	1894	128.150851216882	377
19	1894	128.150851216882	378
19	1894	128.150851216882	379
19	1912	130.150851216882	380
19	1912	130.150851216882	381
19	1912	130.150851216882	382
19	1912	130.150851216882	383
19	1925	131.150851216882	384
19	1925	131.150851216882	385
19	1925	131.150851216882	386
19	1925	131.150851216882	387
19	1931	131.272095482564	388
19	1931	131.272095482564	389
19	1931	131.272095482564	390
19	1931	131.272095482564	391
19	1931	131.272095482564	392
19	1958	132.150851216882	393
19	1958	132.150851216882	394
19	1958	132.150851216882	395
19	1958	132.150851216882	396
19	1976	134.150851216882	397
19	1976	134.150851216882	398
19	1976	134.150851216882	399
19	1976	134.150851216882	400
19	1989	135.650851216882	401
19	1989	135.650851216882	402
19	1989	135.650851216882	403
19	1989	135.650851216882	404
19	1995	135.772095482564	405
19	1995	135.772095482564	406
19	1995	135.772095482564	407
19	1995	135.772095482564	408
19	1995	135.772095482564	409
19	2012	136.150851216882	410
19	2012	136.150851216882	411
19	2012	136.150851216882	412
19	2012	136.150851216882	413
19	2040	138.150851216882	414
19	2040	138.150851216882	415
19	2040	138.150851216882	416
19	2040	138.150851216882	417
19	2058	140.150851216882	418
19	2058	140.150851216882	419
19	2058	140.150851216882	420
19	2058	140.150851216882	421
19	2059	140.150851216882	422
19	2059	140.150851216882	423
19	2059	140.150851216882	424
19	2059	140.150851216882	425
19	2070	140.272095482564	426
19	2070	140.272095482564	427
19	2070	140.272095482564	428
19	2070	140.272095482564	429
19	2070	140.272095482564	430
19	2104	142.150851216882	431
19	2104	142.150851216882	432
19	2104	142.150851216882	433
19	2104	142.150851216882	434
19	2122	144.150851216882	435
19	2122	144.150851216882	436
19	2122	144.150851216882	437
19	2122	144.150851216882	438
19	2130	144.650851216882	439
19	2130	144.650851216882	440
19	2130	144.650851216882	441
19	2130	144.650851216882	442
19	2136	144.772095482564	443
19	2136	144.772095482564	444
19	2136	144.772095482564	445
19	2136	144.772095482564	446
19	2136	144.772095482564	447
19	2168	146.150851216882	448
19	2168	146.150851216882	449
19	2168	146.150851216882	450
19	2168	146.150851216882	451
19	2186	148.150851216882	452
19	2186	148.150851216882	453
19	2186	148.150851216882	454
19	2186	148.150851216882	455
19	2199	149.150851216882	456
19	2199	149.150851216882	457
19	2199	149.150851216882	458
19	2199	149.150851216882	459
19	2205	149.272095482564	460
19	2205	149.272095482564	461
19	2205	149.272095482564	462
19	2205	149.272095482564	463
19	2205	149.272095482564	464
19	2232	150.150851216882	465
19	2232	150.150851216882	466
19	2232	150.150851216882	467
19	2232	150.150851216882	468
19	2250	152.150851216882	469
19	2250	152.150851216882	470
19	2250	152.150851216882	471
19	2250	152.150851216882	472
19	2263	153.650851216882	473
19	2263	153.650851216882	474
19	2263	153.650851216882	475
19	2263	153.650851216882	476
19	2269	153.772095482564	477
19	2269	153.772095482564	478
19	2269	153.772095482564	479
19	2269	153.772095482564	480
19	2269	153.772095482564	481
19	2286	154.150851216882	482
19	2286	154.150851216882	483
19	2286	154.150851216882	484
19	2286	154.150851216882	485
19	2314	156.150851216882	486
19	2314	156.150851216882	487
19	2314	156.150851216882	488
19	2314	156.150851216882	489
19	2332	158.150851216882	490
19	2332	158.150851216882	491
19	2332	158.150851216882	492
19	2332	158.150851216882	493
19	2333	158.150851216882	494
19	2333	158.150851216882	495
19	2333	158.150851216882	496
19	2333	158.150851216882	497
19	2344	158.272095482564	498
19	2344	158.272095482564	499
19	2344	158.272095482564	500
19	2344	158.272095482564	501
19	2344	158.272095482564	502
19	2378	160.150851216882	503
19	2378	160.150851216882	504
19	2378	160.150851216882	505
19	2378	160.150851216882	506
19	2699	182.2583919403	507
19	2723	184.2583919403	508
19	2724	184.2583919403	509
19	2766	186.2583919403	510
19	2784	188.2583919403	511
19	2792	188.7583919403	512
19	2830	190.2583919403	513
19	2848	192.2583919403	514
19	2861	193.2583919403	515
19	2894	194.2583919403	516
19	2912	196.2583919403	517
19	2925	197.7583919403	518
19	2953	198.2583919403	519
20	48	6.082597122967	1
20	80	8.082597122967	2
20	101	10.082597122967	3
20	111	10.582597122967	4
20	154	12.082597122967	5
20	173	14.082597122967	6
20	186	15.082597122967	7
20	219	16.082597122967	8
20	237	18.082597122967	9
20	251	19.582597122967	10
20	280	20.082597122967	11
20	304	22.082597122967	12
20	327	24.082597122967	13
20	328	24.082597122967	14
20	368	26.082597122967	15
20	386	28.082597122967	16
20	2699	182.2583919403	17
20	2723	184.2583919403	18
20	2724	184.2583919403	19
20	2766	186.2583919403	20
20	2784	188.2583919403	21
20	2792	188.7583919403	22
20	2830	190.2583919403	23
20	2848	192.2583919403	24
20	2861	193.2583919403	25
20	2894	194.2583919403	26
20	2912	196.2583919403	27
20	2925	197.7583919403	28
20	2953	198.2583919403	29
21	79	8.054729029471	1
21	100	10.054729029471	2
21	110	10.554729029471	3
21	153	12.054729029471	4
21	172	14.054729029471	5
21	185	15.054729029471	6
21	218	16.054729029471	7
21	236	18.054729029471	8
21	250	19.554729029471	9
21	278	20.054729029471	10
21	561	42.241269680096	11
21	585	44.241269680096	12
21	612	45.741269680096	13
21	626	46.241269680096	14
21	650	48.241269680096	15
21	677	50.241269680096	16
21	678	50.241269680096	17
21	717	52.241269680096	18
21	733	54.241269680096	19
21	740	54.741269680096	20
21	762	56.241269680096	21
21	1263	88.241269680096	22
21	1282	90.241269680096	23
21	1291	90.741269680096	24
21	1330	92.241269680096	25
21	1349	94.241269680096	26
21	1363	95.241269680096	27
21	1397	96.241269680096	28
21	1416	98.241269680096	29
21	1430	99.741269680096	30
21	1458	100.241269680096	31
21	1483	102.241269680096	32
21	1507	104.241269680096	33
21	1508	104.241269680096	34
21	1550	106.241269680096	35
21	1569	108.241269680096	36
21	1578	108.741269680096	37
21	1617	110.241269680096	38
21	1636	112.241269680096	39
21	1650	113.241269680096	40
21	1684	114.241269680096	41
21	1703	116.241269680096	42
21	1717	117.741269680096	43
21	1745	118.241269680096	44
21	1770	120.241269680096	45
21	2439	165.997726137438	46
21	2454	166.230523846804	47
21	2473	168.230523846804	48
21	2500	170.230523846804	49
21	2513	170.730523846804	50
21	2540	172.230523846804	51
21	2570	174.230523846804	52
21	2583	175.230523846804	53
21	2616	176.230523846804	54
21	2634	178.230523846804	55
21	2647	179.730523846804	56
21	2672	180.230523846804	57
21	2698	182.230523846804	58
21	2721	184.230523846804	59
21	2722	184.230523846804	60
22	79	8.054729029471	1
22	100	10.054729029471	2
22	110	10.554729029471	3
22	153	12.054729029471	4
22	172	14.054729029471	5
22	185	15.054729029471	6
22	218	16.054729029471	7
22	236	18.054729029471	8
22	250	19.554729029471	9
22	278	20.054729029471	10
22	561	42.241269680096	11
22	585	44.241269680096	12
22	612	45.741269680096	13
22	626	46.241269680096	14
22	650	48.241269680096	15
22	677	50.241269680096	16
22	678	50.241269680096	17
22	717	52.241269680096	18
22	733	54.241269680096	19
22	740	54.741269680096	20
22	762	56.241269680096	21
22	1263	88.241269680096	22
22	1282	90.241269680096	23
22	1291	90.741269680096	24
22	1330	92.241269680096	25
22	1349	94.241269680096	26
22	1363	95.241269680096	27
22	1397	96.241269680096	28
22	1416	98.241269680096	29
22	1430	99.741269680096	30
22	1458	100.241269680096	31
22	1483	102.241269680096	32
22	1507	104.241269680096	33
22	1508	104.241269680096	34
22	1550	106.241269680096	35
22	1569	108.241269680096	36
22	1578	108.741269680096	37
22	1617	110.241269680096	38
22	1636	112.241269680096	39
22	1650	113.241269680096	40
22	1684	114.241269680096	41
22	1703	116.241269680096	42
22	1717	117.741269680096	43
22	1745	118.241269680096	44
22	1770	120.241269680096	45
22	2454	166.230523846804	46
22	2473	168.230523846804	47
22	2500	170.230523846804	48
22	2513	170.730523846804	49
22	2540	172.230523846804	50
22	2570	174.230523846804	51
22	2583	175.230523846804	52
22	2616	176.230523846804	53
[...]
24	2807	189.07475255392	4.5
24	2871	193.57475255392	4.5
24	2940	198.07475255392	4.5
25	122	10.909070815164	0.944577573065
25	199	15.487012219787	4.577941404623
25	264	19.909070815164	4.422058595377
25	342	24.409070815164	4.5
25	692	50.681205870752	26.272135055588
25	821	59.601015337015	8.919809466263
25	891	64.147593831691	4.546578494676
25	963	68.647593831691	4.5
25	1032	73.147593831691	4.5
25	1096	77.647593831691	4.5
25	1165	82.147593831691	4.5
25	1237	86.647593831691	4.5
25	1309	91.147593831691	4.5
25	1376	95.647593831691	4.5
25	1448	100.120452296996	4.472858465305
25	1524	104.620452296996	4.5
25	1596	109.120452296996	4.5
25	1663	113.620452296996	4.5
25	1735	118.120452296996	4.5
25	1809	122.647593831691	4.527141534695
25	1878	127.147593831691	4.5
25	1942	131.647593831691	4.5
25	2011	136.147593831691	4.5
25	2083	140.647593831691	4.5
25	2152	145.147593831691	4.5
25	2216	149.647593831691	4.5
25	2285	154.147593831691	4.5
25	2357	158.647593831691	4.5
25	2526	171.16280703712	12.515213205429
25	2596	175.66280703712	4.5
25	2667	180.16280703712	4.5
25	2740	184.584865632497	4.422058595377
25	2809	189.084865632497	4.5
25	2873	193.584865632497	4.5
25	2942	198.084865632497	4.5
26	129	11.016900474475	4.490433078484
26	203	15.594841879098	4.577941404623
26	276	20.016900474475	4.422058595377
26	346	24.516900474475	4.5
26	696	50.789035530063	26.272135055588
26	845	60.521145203007	9.732109672944
26	901	64.255423491002	3.734278287995
26	967	68.755423491002	4.5
26	1036	73.255423491002	4.5
26	1100	77.755423491002	4.5
26	1175	82.255423491002	4.5
26	1241	86.755423491002	4.5
26	1313	91.255423491002	4.5
26	1380	95.755423491002	4.5
26	1456	100.228281956307	4.472858465305
26	1528	104.728281956307	4.5
26	1600	109.228281956307	4.5
26	1667	113.728281956307	4.5
26	1743	118.228281956307	4.5
26	1813	122.755423491002	4.527141534695
26	1882	127.255423491002	4.5
26	1946	131.755423491002	4.5
26	2021	136.255423491002	4.5
26	2087	140.755423491002	4.5
26	2156	145.255423491002	4.5
26	2220	149.755423491002	4.5
26	2295	154.255423491002	4.5
26	2361	158.755423491002	4.5
26	2600	175.770636696431	17.015213205429
26	2675	180.270636696431	4.5
26	2744	184.692695291808	4.422058595377
26	2813	189.192695291808	4.5
26	2877	193.692695291808	4.5
26	2949	198.192695291808	4.5
27	195	15.457857339224	10.073593917124
27	260	19.879915934601	4.422058595377
27	338	24.379915934601	4.5
27	688	50.652050990189	26.272135055588
27	817	59.571860456452	8.919809466263
27	887	64.118438951128	4.546578494676
27	959	68.618438951128	4.5
27	1028	73.118438951128	4.5
27	1092	77.618438951128	4.5
27	1161	82.118438951128	4.5
27	1233	86.618438951128	4.5
27	1305	91.118438951128	4.5
27	1372	95.618438951128	4.5
27	1444	100.091297416433	4.472858465305
27	1520	104.591297416433	4.5
27	1592	109.091297416433	4.5
27	1659	113.591297416433	4.5
27	1731	118.091297416433	4.5
27	1805	122.618438951128	4.527141534695
27	1874	127.118438951128	4.5
27	1938	131.618438951128	4.5
27	2007	136.118438951128	4.5
27	2079	140.618438951128	4.5
27	2148	145.118438951128	4.5
27	2212	149.618438951128	4.5
27	2281	154.118438951128	4.5
27	2353	158.618438951128	4.5
27	2592	175.633652156557	17.015213205429
27	2663	180.133652156557	4.5
27	2736	184.555710751934	4.422058595377
27	2805	189.055710751934	4.5
27	2869	193.555710751934	4.5
27	2938	198.055710751934	4.5
28	196	15.465484872807	9.926180755152
28	261	19.887543468184	4.422058595377
28	339	24.387543468184	4.5
28	689	50.659678523772	26.272135055588
28	818	59.579487990035	8.919809466263
28	888	64.126066484711	4.546578494676
28	960	68.626066484711	4.5
28	1029	73.126066484711	4.5
28	1093	77.626066484711	4.5
28	1162	82.126066484711	4.5
28	1234	86.626066484711	4.5
28	1306	91.126066484711	4.5
28	1373	95.626066484711	4.5
28	1445	100.098924950016	4.472858465305
28	1521	104.598924950016	4.5
28	1593	109.098924950016	4.5
28	1660	113.598924950016	4.5
28	1732	118.098924950016	4.5
28	1806	122.626066484711	4.527141534695
28	1875	127.126066484711	4.5
28	1939	131.626066484711	4.5
28	2008	136.126066484711	4.5
28	2080	140.626066484711	4.5
28	2149	145.126066484711	4.5
28	2213	149.626066484711	4.5
28	2282	154.126066484711	4.5
28	2354	158.626066484711	4.5
28	2593	175.64127969014	17.015213205429
28	2664	180.14127969014	4.5
28	2737	184.563338285517	4.422058595377
28	2806	189.063338285517	4.5
28	2870	193.563338285517	4.5
28	2939	198.063338285517	4.5
29	432	32.0296069512	1
29	432	32.0296069512	2
29	432	32.0296069512	3
29	432	32.0296069512	4
30	438	32.150851216882	1
30	438	32.150851216882	2
30	438	32.150851216882	3
30	438	32.150851216882	4
30	456	34.150851216882	5
30	456	34.150851216882	6
30	456	34.150851216882	7
30	456	34.150851216882	8
30	479	36.150851216882	9
30	479	36.150851216882	10
30	479	36.150851216882	11
30	479	36.150851216882	12
30	504	38.150851216882	13
30	504	38.150851216882	14
30	504	38.150851216882	15
30	504	38.150851216882	16
30	528	40.150851216882	17
30	528	40.150851216882	18
30	528	40.150851216882	19
30	528	40.150851216882	20
30	543	41.150851216882	21
30	543	41.150851216882	22
30	543	41.150851216882	23
30	543	41.150851216882	24
30	557	42.150851216882	25
30	557	42.150851216882	26
30	557	42.150851216882	27
30	557	42.150851216882	28
30	581	44.150851216882	29
30	581	44.150851216882	30
30	581	44.150851216882	31
30	581	44.150851216882	32
30	607	45.650851216882	33
30	607	45.650851216882	34
30	607	45.650851216882	35
30	607	45.650851216882	36
30	622	46.150851216882	37
30	622	46.150851216882	38
30	622	46.150851216882	39
30	622	46.150851216882	40
30	646	48.150851216882	41
30	646	48.150851216882	42
30	646	48.150851216882	43
30	646	48.150851216882	44
30	670	50.150851216882	45
30	670	50.150851216882	46
30	670	50.150851216882	47
30	671	50.150851216882	48
30	671	50.150851216882	49
30	671	50.150851216882	50
30	671	50.150851216882	51
30	713	52.150851216882	52
30	713	52.150851216882	53
30	713	52.150851216882	54
30	713	52.150851216882	55
30	729	54.150851216882	56
30	729	54.150851216882	57
30	729	54.150851216882	58
30	729	54.150851216882	59
30	736	54.650851216882	60
30	736	54.650851216882	61
30	736	54.650851216882	62
30	736	54.650851216882	63
30	755	56.150851216882	64
30	755	56.150851216882	65
30	755	56.150851216882	66
30	755	56.150851216882	67
30	795	58.150851216882	68
30	795	58.150851216882	69
30	795	58.150851216882	70
30	795	58.150851216882	71
30	807	59.150851216882	72
30	807	59.150851216882	73
30	807	59.150851216882	74
30	838	60.150851216882	75
30	838	60.150851216882	76
30	838	60.150851216882	77
30	838	60.150851216882	78
30	858	62.150851216882	79
30	858	62.150851216882	80
30	858	62.150851216882	81
30	858	62.150851216882	82
30	870	63.650851216882	83
30	870	63.650851216882	84
30	870	63.650851216882	85
30	870	63.650851216882	86
30	892	64.150851216882	87
30	892	64.150851216882	88
30	892	64.150851216882	89
30	892	64.150851216882	90
30	920	66.150851216882	91
30	920	66.150851216882	92
30	920	66.150851216882	93
30	920	66.150851216882	94
30	938	68.150851216882	95
30	938	68.150851216882	96
30	938	68.150851216882	97
30	938	68.150851216882	98
30	939	68.150851216882	99
30	939	68.150851216882	100
30	939	68.150851216882	101
30	939	68.150851216882	102
30	984	70.150851216882	103
30	984	70.150851216882	104
30	984	70.150851216882	105
30	984	70.150851216882	106
30	1002	72.150851216882	107
30	1002	72.150851216882	108
30	1002	72.150851216882	109
30	1002	72.150851216882	110
30	1010	72.650851216882	111
30	1010	72.650851216882	112
30	1010	72.650851216882	113
30	1010	72.650851216882	114
30	1048	74.150851216882	115
30	1048	74.150851216882	116
30	1048	74.150851216882	117
30	1048	74.150851216882	118
30	1066	76.150851216882	119
30	1066	76.150851216882	120
30	1066	76.150851216882	121
30	1066	76.150851216882	122
30	1079	77.150851216882	123
30	1079	77.150851216882	124
30	1079	77.150851216882	125
30	1079	77.150851216882	126
30	1112	78.150851216882	127
30	1112	78.150851216882	128
30	1112	78.150851216882	129
30	1112	78.150851216882	130
30	1130	80.150851216882	131
30	1130	80.150851216882	132
30	1130	80.150851216882	133
30	1130	80.150851216882	134
30	1143	81.650851216882	135
30	1143	81.650851216882	136
30	1143	81.650851216882	137
30	1143	81.650851216882	138
30	1166	82.150851216882	139
30	1166	82.150851216882	140
30	1166	82.150851216882	141
30	1166	82.150851216882	142
30	1194	84.150851216882	143
30	1194	84.150851216882	144
30	1194	84.150851216882	145
30	1194	84.150851216882	146
30	1212	86.150851216882	147
30	1212	86.150851216882	148
30	1212	86.150851216882	149
30	1212	86.150851216882	150
30	1213	86.150851216882	151
30	1213	86.150851216882	152
30	1213	86.150851216882	153
30	1213	86.150851216882	154
30	1258	88.150851216882	155
30	1258	88.150851216882	156
30	1258	88.150851216882	157
30	1258	88.150851216882	158
30	1277	90.150851216882	159
30	1277	90.150851216882	160
30	1277	90.150851216882	161
30	1277	90.150851216882	162
30	1286	90.650851216882	163
30	1286	90.650851216882	164
30	1286	90.650851216882	165
30	1286	90.650851216882	166
30	1325	92.150851216882	167
30	1325	92.150851216882	168
30	1325	92.150851216882	169
30	1325	92.150851216882	170
30	1344	94.150851216882	171
30	1344	94.150851216882	172
30	1344	94.150851216882	173
30	1344	94.150851216882	174
30	1358	95.150851216882	175
30	1358	95.150851216882	176
30	1358	95.150851216882	177
30	1358	95.150851216882	178
30	1392	96.150851216882	179
30	1392	96.150851216882	180
30	1392	96.150851216882	181
30	1392	96.150851216882	182
30	1411	98.150851216882	183
30	1411	98.150851216882	184
30	1411	98.150851216882	185
30	1411	98.150851216882	186
30	1425	99.650851216882	187
30	1425	99.650851216882	188
30	1425	99.650851216882	189
30	1425	99.650851216882	190
30	1451	100.150851216882	191
30	1451	100.150851216882	192
30	1451	100.150851216882	193
30	1451	100.150851216882	194
30	1478	102.150851216882	195
30	1478	102.150851216882	196
30	1478	102.150851216882	197
30	1478	102.150851216882	198
30	1497	104.150851216882	199
30	1497	104.150851216882	200
30	1497	104.150851216882	201
30	1497	104.150851216882	202
30	1498	104.150851216882	203
30	1498	104.150851216882	204
30	1498	104.150851216882	205
30	1498	104.150851216882	206
30	1545	106.150851216882	207
30	1545	106.150851216882	208
30	1545	106.150851216882	209
30	1545	106.150851216882	210
30	1564	108.150851216882	211
30	1564	108.150851216882	212
30	1564	108.150851216882	213
30	1564	108.150851216882	214
30	1573	108.650851216882	215
30	1573	108.650851216882	216
30	1573	108.650851216882	217
30	1573	108.650851216882	218
30	1612	110.150851216882	219
30	1612	110.150851216882	220
30	1612	110.150851216882	221
30	1612	110.150851216882	222
30	1631	112.150851216882	223
30	1631	112.150851216882	224
30	1631	112.150851216882	225
30	1631	112.150851216882	226
30	1645	113.150851216882	227
30	1645	113.150851216882	228
30	1645	113.150851216882	229
30	1645	113.150851216882	230
30	1679	114.150851216882	231
30	1679	114.150851216882	232
30	1679	114.150851216882	233
30	1679	114.150851216882	234
30	1698	116.150851216882	235
30	1698	116.150851216882	236
30	1698	116.150851216882	237
30	1698	116.150851216882	238
30	1712	117.650851216882	239
30	1712	117.650851216882	240
30	1712	117.650851216882	241
30	1712	117.650851216882	242
30	1738	118.150851216882	243
30	1738	118.150851216882	244
30	1738	118.150851216882	245
30	1738	118.150851216882	246
30	1765	120.150851216882	247
30	1765	120.150851216882	248
30	1765	120.150851216882	249
30	1765	120.150851216882	250
30	1784	122.150851216882	251
30	1784	122.150851216882	252
30	1784	122.150851216882	253
30	1784	122.150851216882	254
30	1785	122.150851216882	255
30	1785	122.150851216882	256
30	1785	122.150851216882	257
30	1785	122.150851216882	258
30	1830	124.150851216882	259
30	1830	124.150851216882	260
30	1830	124.150851216882	261
30	1830	124.150851216882	262
30	1848	126.150851216882	263
30	1848	126.150851216882	264
30	1848	126.150851216882	265
30	1848	126.150851216882	266
30	1856	126.650851216882	267
30	1856	126.650851216882	268
30	1856	126.650851216882	269
30	1856	126.650851216882	270
30	1894	128.150851216882	271
30	1894	128.150851216882	272
30	1894	128.150851216882	273
30	1894	128.150851216882	274
30	1912	130.150851216882	275
30	1912	130.150851216882	276
30	1912	130.150851216882	277
30	1912	130.150851216882	278
30	1925	131.150851216882	279
30	1925	131.150851216882	280
30	1925	131.150851216882	281
30	1925	131.150851216882	282
30	1958	132.150851216882	283
30	1958	132.150851216882	284
30	1958	132.150851216882	285
30	1958	132.150851216882	286
30	1976	134.150851216882	287
30	1976	134.150851216882	288
30	1976	134.150851216882	289
30	1976	134.150851216882	290
30	1989	135.650851216882	291
30	1989	135.650851216882	292
30	1989	135.650851216882	293
30	1989	135.650851216882	294
30	2012	136.150851216882	295
30	2012	136.150851216882	296
30	2012	136.150851216882	297
30	2012	136.150851216882	298
30	2040	138.150851216882	299
30	2040	138.150851216882	300
30	2040	138.150851216882	301
30	2040	138.150851216882	302
30	2058	140.150851216882	303
30	2058	140.150851216882	304
30	2058	140.150851216882	305
30	2058	140.150851216882	306
30	2059	140.150851216882	307
30	2059	140.150851216882	308
30	2059	140.150851216882	309
30	2059	140.150851216882	310
30	2104	142.150851216882	311
30	2104	142.150851216882	312
30	2104	142.150851216882	313
30	2104	142.150851216882	314
30	2122	144.150851216882	315
30	2122	144.150851216882	316
30	2122	144.150851216882	317
30	2122	144.150851216882	318
30	2130	144.650851216882	319
30	2130	144.650851216882	320
30	2130	144.650851216882	321
30	2130	144.650851216882	322
30	2168	146.150851216882	323
30	2168	146.150851216882	324
30	2168	146.150851216882	325
30	2168	146.150851216882	326
30	2186	148.150851216882	327
30	2186	148.150851216882	328
30	2186	148.150851216882	329
30	2186	148.150851216882	330
30	2199	149.150851216882	331
30	2199	149.150851216882	332
30	2199	149.150851216882	333
30	2199	149.150851216882	334
30	2232	150.150851216882	335
30	2232	150.150851216882	336
30	2232	150.150851216882	337
30	2232	150.150851216882	338
30	2250	152.150851216882	339
30	2250	152.150851216882	340
30	2250	152.150851216882	341
30	2250	152.150851216882	342
30	2263	153.650851216882	343
30	2263	153.650851216882	344
30	2263	153.650851216882	345
30	2263	153.650851216882	346
30	2286	154.150851216882	347
30	2286	154.150851216882	348
30	2286	154.150851216882	349
30	2286	154.150851216882	350
30	2314	156.150851216882	351
30	2314	156.150851216882	352
30	2314	156.150851216882	353
30	2314	156.150851216882	354
30	2332	158.150851216882	355
30	2332	158.150851216882	356
30	2332	158.150851216882	357
30	2332	158.150851216882	358
30	2333	158.150851216882	359
30	2333	158.150851216882	360
30	2333	158.150851216882	361
30	2333	158.150851216882	362
30	2378	160.150851216882	363
30	2378	160.150851216882	364
30	2378	160.150851216882	365
30	2378	160.150851216882	366
31	647	48.175794817333	1
31	672	50.175794817333	2
31	673	50.175794817333	3
31	895	64.175794817333	4
31	921	66.175794817333	5
31	940	68.175794817333	6
31	941	68.175794817333	7
31	985	70.175794817333	8
31	1003	72.175794817333	9
31	1011	72.675794817333	10
31	1049	74.175794817333	11
31	1067	76.175794817333	12
31	1080	77.175794817333	13
31	1113	78.175794817333	14
31	1131	80.175794817333	15
31	1144	81.675794817333	16
31	1169	82.175794817333	17
31	1195	84.175794817333	18
31	1214	86.175794817333	19
31	1215	86.175794817333	20
31	1259	88.175794817333	21
31	1278	90.175794817333	22
31	1287	90.675794817333	23
31	1326	92.175794817333	24
31	1345	94.175794817333	25
31	1359	95.175794817333	26
31	1393	96.175794817333	27
31	1412	98.175794817333	28
31	1426	99.675794817333	29
31	1452	100.175794817333	30
31	1479	102.175794817333	31
31	1499	104.175794817333	32
31	1500	104.175794817333	33
31	1546	106.175794817333	34
31	1565	108.175794817333	35
31	1574	108.675794817333	36
31	1613	110.175794817333	37
31	1632	112.175794817333	38
31	1646	113.175794817333	39
31	1680	114.175794817333	40
31	1699	116.175794817333	41
31	1713	117.675794817333	42
31	1739	118.175794817333	43
31	1766	120.175794817333	44
31	1786	122.175794817333	45
31	1787	122.175794817333	46
31	1831	124.175794817333	47
31	1849	126.175794817333	48
31	1857	126.675794817333	49
31	1895	128.175794817333	50
31	1913	130.175794817333	51
31	1926	131.175794817333	52
31	1959	132.175794817333	53
31	1977	134.175794817333	54
31	1990	135.675794817333	55
31	2015	136.175794817333	56
31	2041	138.175794817333	57
31	2060	140.175794817333	58
31	2061	140.175794817333	59
31	2105	142.175794817333	60
31	2123	144.175794817333	61
31	2131	144.675794817333	62
31	2169	146.175794817333	63
31	2187	148.175794817333	64
31	2200	149.175794817333	65
31	2233	150.175794817333	66
31	2251	152.175794817333	67
31	2264	153.675794817333	68
31	2289	154.175794817333	69
31	2315	156.175794817333	70
31	2334	158.175794817333	71
31	2335	158.175794817333	72
31	2379	160.175794817333	73
32	681	50.305707521625	1
32	681	50.305707521625	2
32	681	50.305707521625	3
32	681	50.305707521625	4
32	681	50.305707521625	5
32	810	59.225516987888	6
32	810	59.225516987888	7
32	810	59.225516987888	8
32	810	59.225516987888	9
32	810	59.225516987888	10
32	876	63.772095482564	11
32	876	63.772095482564	12
32	876	63.772095482564	13
32	876	63.772095482564	14
32	876	63.772095482564	15
32	950	68.272095482564	16
32	950	68.272095482564	17
32	950	68.272095482564	18
32	950	68.272095482564	19
32	950	68.272095482564	20
32	1016	72.772095482564	21
32	1016	72.772095482564	22
32	1016	72.772095482564	23
32	1016	72.772095482564	24
32	1016	72.772095482564	25
32	1085	77.272095482564	26
32	1085	77.272095482564	27
32	1085	77.272095482564	28
32	1085	77.272095482564	29
32	1085	77.272095482564	30
32	1149	81.772095482564	31
32	1149	81.772095482564	32
32	1149	81.772095482564	33
32	1149	81.772095482564	34
32	1149	81.772095482564	35
32	1224	86.272095482564	36
32	1224	86.272095482564	37
32	1224	86.272095482564	38
32	1224	86.272095482564	39
32	1224	86.272095482564	40
32	1293	90.772095482564	41
32	1293	90.772095482564	42
32	1293	90.772095482564	43
32	1293	90.772095482564	44
32	1293	90.772095482564	45
32	1365	95.272095482564	46
32	1365	95.272095482564	47
32	1365	95.272095482564	48
32	1365	95.272095482564	49
32	1365	95.272095482564	50
32	1431	99.744953947869	51
32	1431	99.744953947869	52
32	1431	99.744953947869	53
32	1431	99.744953947869	54
32	1431	99.744953947869	55
32	1509	104.244953947869	56
32	1509	104.244953947869	57
32	1509	104.244953947869	58
32	1509	104.244953947869	59
32	1509	104.244953947869	60
32	1579	108.744953947869	61
32	1579	108.744953947869	62
32	1579	108.744953947869	63
32	1579	108.744953947869	64
32	1579	108.744953947869	65
32	1651	113.244953947869	66
32	1651	113.244953947869	67
32	1651	113.244953947869	68
32	1651	113.244953947869	69
32	1651	113.244953947869	70
32	1718	117.744953947869	71
32	1718	117.744953947869	72
32	1718	117.744953947869	73
32	1718	117.744953947869	74
32	1718	117.744953947869	75
32	1796	122.272095482564	76
32	1796	122.272095482564	77
32	1796	122.272095482564	78
32	1796	122.272095482564	79
32	1796	122.272095482564	80
32	1862	126.772095482564	81
32	1862	126.772095482564	82
32	1862	126.772095482564	83
32	1862	126.772095482564	84
32	1862	126.772095482564	85
32	1931	131.272095482564	86
32	1931	131.272095482564	87
32	1931	131.272095482564	88
32	1931	131.272095482564	89
32	1931	131.272095482564	90
32	1995	135.772095482564	91
32	1995	135.772095482564	92
32	1995	135.772095482564	93
32	1995	135.772095482564	94
32	1995	135.772095482564	95
32	2070	140.272095482564	96
32	2070	140.272095482564	97
32	2070	140.272095482564	98
32	2070	140.272095482564	99
32	2070	140.272095482564	100
32	2136	144.772095482564	101
32	2136	144.772095482564	102
32	2136	144.772095482564	103
32	2136	144.772095482564	104
32	2136	144.772095482564	105
32	2205	149.272095482564	106
32	2205	149.272095482564	107
32	2205	149.272095482564	108
32	2205	149.272095482564	109
32	2205	149.272095482564	110
32	2269	153.772095482564	111
32	2269	153.772095482564	112
32	2269	153.772095482564	113
32	2269	153.772095482564	114
32	2269	153.772095482564	115
32	2344	158.272095482564	116
32	2344	158.272095482564	117
32	2344	158.272095482564	118
32	2344	158.272095482564	119
32	2344	158.272095482564	120
33	2439	165.997726137438	1

