version 2
run StaticNetwork-13-20220401-21:01:28-18812
attr configname StaticNetwork
attr datetime 20220401-21:01:28
attr experiment StaticNetwork
attr inifile omnetpp.ini
attr iterationvars "$0=5, $1=5, $2=normal(7.0s, 1.5s), $3=uniform(0.1s, 0.3s), $4=6s, $5=2s, $6=4.5s, $7=5s, $8=1s, $9=1, $10=7, $11=0"
attr iterationvarsf 5,5,normal(7.0s,_1.5s),uniform(0.1s,_0.3s),6s,2s,4.5s,5s,1s,1,7,0-
attr measurement "$0=5, $1=5, $2=normal(7.0s, 1.5s), $3=uniform(0.1s, 0.3s), $4=6s, $5=2s, $6=4.5s, $7=5s, $8=1s, $9=1, $10=7, $11=0"
attr network RAFT_Network
attr processid 18812
attr repetition 1
attr replication #1
attr resultdir results
attr runnumber 13
attr seedset 13
param **.servers_number 5
param **.clients_number 5
param **.client[*].requestMsgTimeout "normal(7.0s, 1.5s)"
param **.cloud.propDelay "uniform(0.1s, 0.3s)"
param **.server[*].electionTimeout 6s
param **.server[*].heartbeatTimeout 2s
param **.server[*].appendEntriesTimeout 4.5s
param **.server[*].checkFailureTimeout 5s
param **.server[*].checkRecoveryTimeout 1s
param **.failureProbability 1
param **.recoveryProbability 7
param **.messageLossProbability 0

vector 0 RAFT_Network.server[0] serverState ETV
vector 1 RAFT_Network.server[1] serverState ETV
vector 2 RAFT_Network.server[2] serverState ETV
vector 3 RAFT_Network.server[3] serverState ETV
vector 4 RAFT_Network.server[4] serverState ETV
0	0	0	0
1	0	0	0
2	0	0	0
3	0	0	0
4	0	0	0
vector 5 RAFT_Network.server[1] totMsgReceived ETV
5	8	5.260902212879	1
vector 6 RAFT_Network.server[0] totMsgSent ETV
vector 7 RAFT_Network.server[0] totRequestVoteMsgSent ETV
0	9	6	0
0	9	6	1
6	9	6	1
6	9	6	2
6	9	6	3
6	9	6	4
7	9	6	1
7	9	6	2
7	9	6	3
7	9	6	4
vector 8 RAFT_Network.server[1] totMsgSent ETV
vector 9 RAFT_Network.server[1] totRequestVoteMsgSent ETV
1	10	6	0
1	10	6	1
8	10	6	1
8	10	6	2
8	10	6	3
8	10	6	4
9	10	6	1
9	10	6	2
9	10	6	3
9	10	6	4
vector 10 RAFT_Network.server[2] totMsgSent ETV
vector 11 RAFT_Network.server[2] totRequestVoteMsgSent ETV
2	11	6	0
2	11	6	1
10	11	6	1
10	11	6	2
10	11	6	3
10	11	6	4
11	11	6	1
11	11	6	2
11	11	6	3
11	11	6	4
vector 12 RAFT_Network.server[3] totMsgSent ETV
vector 13 RAFT_Network.server[3] totRequestVoteMsgSent ETV
3	12	6	0
3	12	6	1
12	12	6	1
12	12	6	2
12	12	6	3
12	12	6	4
13	12	6	1
13	12	6	2
13	12	6	3
13	12	6	4
vector 14 RAFT_Network.server[4] totMsgSent ETV
vector 15 RAFT_Network.server[4] totRequestVoteMsgSent ETV
4	13	6	0
4	13	6	1
14	13	6	1
14	13	6	2
14	13	6	3
14	13	6	4
15	13	6	1
15	13	6	2
15	13	6	3
15	13	6	4
vector 16 RAFT_Network.server[1] totReplyToClientRequestMsgSent ETV
5	14	6.001783251212	2
8	14	6.001783251212	5
16	14	6.001783251212	1
5	15	6.003014709667	3
8	15	6.003014709667	6
16	15	6.003014709667	2
5	16	6.017723117448	4
8	16	6.017723117448	7
16	16	6.017723117448	3
vector 17 RAFT_Network.server[2] totMsgReceived ETV
vector 18 RAFT_Network.server[2] totReplyToClientRequestMsgSent ETV
10	17	6.020802081244	5
17	17	6.020802081244	1
18	17	6.020802081244	1
17	18	6.022585332456	2
5	19	6.022585332456	5
10	20	6.023328797661	6
17	20	6.023328797661	3
18	20	6.023328797661	2
vector 19 RAFT_Network.server[4] totMsgReceived ETV
vector 20 RAFT_Network.server[4] totReplyToClientRequestMsgSent ETV
14	21	6.024554661393	5
19	21	6.024554661393	1
20	21	6.024554661393	1
14	22	6.031894354977	6
19	22	6.031894354977	2
20	22	6.031894354977	2
14	23	6.034358785632	7
19	23	6.034358785632	3
20	23	6.034358785632	3
10	24	6.046740985071	7
17	24	6.046740985071	4
18	24	6.046740985071	3
vector 21 RAFT_Network.server[0] totMsgReceived ETV
vector 22 RAFT_Network.server[0] totReplyToClientRequestMsgSent ETV
6	25	6.046957816282	5
21	25	6.046957816282	1
22	25	6.046957816282	1
6	26	6.051307141953	6
21	26	6.051307141953	2
22	26	6.051307141953	2
vector 23 RAFT_Network.server[3] totMsgReceived ETV
vector 24 RAFT_Network.server[3] totReplyToClientRequestMsgSent ETV
12	27	6.054222476883	5
23	27	6.054222476883	1
24	27	6.054222476883	1
19	28	6.055223152638	4
17	29	6.055223152638	5
12	30	6.05694796248	6
23	30	6.05694796248	2
24	30	6.05694796248	2
12	31	6.063653734232	7
23	31	6.063653734232	3
24	31	6.063653734232	3
6	32	6.06400998715	7
21	32	6.06400998715	3
22	32	6.06400998715	3
5	33	6.069648130292	6
8	33	6.069648130292	8
16	33	6.069648130292	4
23	34	6.071945594331	4
5	35	6.071945594331	7
6	36	6.074699882982	8
21	36	6.074699882982	4
22	36	6.074699882982	4
12	37	6.078999137558	8
23	37	6.078999137558	5
24	37	6.078999137558	4
21	38	6.088564648543	5
19	39	6.088564648543	5
23	40	6.091306748112	6
19	41	6.091306748112	6
10	42	6.097266846056	8
17	42	6.097266846056	6
18	42	6.097266846056	4
5	43	6.116605946574	8
21	44	6.116605946574	6
14	45	6.117983068646	8
19	45	6.117983068646	7
20	45	6.117983068646	4
19	46	6.120997778313	8
5	47	6.120997778313	9
21	48	6.121440868053	7
17	49	6.121440868053	7
23	50	6.130306279511	7
21	51	6.130306279511	8
17	52	6.160920580288	8
23	53	6.160920580288	8
5	56	7.494363842788	10
5	59	8.069584271563	11
5	62	8.938064257553	12
19	65	9.427669395955	9
19	73	10.201267885535	10
0	74	12	1
0	74	12	1
6	74	12	9
6	74	12	10
6	74	12	11
6	74	12	12
7	74	12	5
7	74	12	6
7	74	12	7
7	74	12	8
1	75	12	1
1	75	12	1
8	75	12	9
8	75	12	10
8	75	12	11
8	75	12	12
9	75	12	5
9	75	12	6
9	75	12	7
9	75	12	8
2	76	12	1
2	76	12	1
10	76	12	9
10	76	12	10
10	76	12	11
10	76	12	12
11	76	12	5
11	76	12	6
11	76	12	7
11	76	12	8
3	77	12	1
3	77	12	1
12	77	12	9
12	77	12	10
12	77	12	11
12	77	12	12
13	77	12	5
13	77	12	6
13	77	12	7
13	77	12	8
4	78	12	1
4	78	12	1
14	78	12	9
14	78	12	10
14	78	12	11
14	78	12	12
15	78	12	5
15	78	12	6
15	78	12	7
15	78	12	8
5	79	12.001783251212	13
8	79	12.001783251212	13
16	79	12.001783251212	5
5	80	12.003014709667	14
8	80	12.003014709667	14
16	80	12.003014709667	6
5	81	12.017723117448	15
8	81	12.017723117448	15
16	81	12.017723117448	7
10	82	12.020802081244	13
17	82	12.020802081244	9
18	82	12.020802081244	5
17	83	12.022585332456	10
5	84	12.022585332456	16
0	136	18	1
0	136	18	1
0	198	24	1
0	198	24	1
0	262	30	1
0	262	30	1
0	327	36	1
0	327	36	1
0	381	42	1
0	381	42	1
0	438	48	1
0	438	48	1
0	490	54	1
0	490	54	1
0	546	60	1
0	546	60	1
0	607	66	1
0	607	66	1
0	658	72	1
0	658	72	1
0	720	78	1
0	720	78	1
0	782	84	1
0	782	84	1
0	847	90	1
0	847	90	1
0	916	96	1
0	916	96	1
0	979	102	1
0	979	102	1
0	1037	108	1
0	1037	108	1
0	1100	114	1
0	1100	114	1
0	1165	120	1
0	1165	120	1
0	1231	126	1
0	1231	126	1
0	1297	132	1
0	1297	132	1
0	1355	138	1
0	1355	138	1
0	1415	144	1
0	1415	144	1
0	1483	150	1
0	1483	150	1
0	1546	156	1
0	1546	156	1
0	1603	162	1
0	1603	162	1
0	1644	165	1
0	1644	165	-1
0	1923	196	-1
0	1923	196	0
0	1934	198.048741067494	0
0	1934	198.048741067494	0
0	1993	204.048741067494	0
0	1993	204.048741067494	1
0	2057	210.048741067494	1
0	2057	210.048741067494	1
0	2118	216.048741067494	1
0	2118	216.048741067494	1
0	2181	222.048741067494	1
0	2181	222.048741067494	1
0	2243	228.048741067494	1
0	2243	228.048741067494	1
0	2308	234.048741067494	1
0	2308	234.048741067494	1
0	2375	240.048741067494	1
0	2375	240.048741067494	1
0	2437	246.048741067494	1
0	2437	246.048741067494	1
0	2499	252.048741067494	1
0	2499	252.048741067494	1
0	2561	258.048741067494	1
0	2561	258.048741067494	1
0	2626	264.048741067494	1
0	2626	264.048741067494	1
0	2693	270.048741067494	1
0	2693	270.048741067494	1
0	2754	276.048741067494	1
0	2754	276.048741067494	1
0	2817	282.048741067494	1
0	2817	282.048741067494	1
0	2879	288.048741067494	1
0	2879	288.048741067494	1
0	2942	294.048741067494	1
0	2942	294.048741067494	1
0	3005	300.048741067494	1
0	3005	300.048741067494	1
0	3073	306.048741067494	1
0	3073	306.048741067494	1
0	3132	312.048741067494	1
0	3132	312.048741067494	1
0	3199	318.048741067494	1
0	3199	318.048741067494	1
0	3262	324.048741067494	1
0	3262	324.048741067494	1
0	3323	330.048741067494	1
0	3323	330.048741067494	1
0	3388	336.048741067494	1
0	3388	336.048741067494	1
0	3454	342.048741067494	1
0	3454	342.048741067494	1
0	3508	348.048741067494	1
0	3508	348.048741067494	1
0	3550	354.048741067494	1
0	3550	354.048741067494	1
0	3598	360.048741067494	1
0	3598	360.048741067494	1
0	3654	366.048741067494	1
0	3654	366.048741067494	1
0	3708	372.048741067494	1
0	3708	372.048741067494	1
0	3765	378.048741067494	1
0	3765	378.048741067494	1
0	3818	384.048741067494	1
0	3818	384.048741067494	1
0	3882	390.048741067494	1
0	3882	390.048741067494	1
0	3922	391	1
0	3922	391	-1
0	3932	394	-1
0	3932	394	0
0	3948	396.048741067494	0
0	3948	396.048741067494	0
0	4001	402.048741067494	0
0	4001	402.048741067494	1
0	4066	408.048741067494	1
0	4066	408.048741067494	1
0	4130	414.048741067494	1
0	4130	414.048741067494	1
0	4194	420.048741067494	1
0	4194	420.048741067494	1
0	4259	426.048741067494	1
0	4259	426.048741067494	1
0	4318	432.048741067494	1
0	4318	432.048741067494	1
0	4382	438.048741067494	1
0	4382	438.048741067494	1
0	4448	444.048741067494	1
0	4448	444.048741067494	1
0	4509	450.048741067494	1
0	4509	450.048741067494	1
0	4575	456.048741067494	1
0	4575	456.048741067494	1
0	4637	462.048741067494	1
0	4637	462.048741067494	1
0	4697	468.048741067494	1
0	4697	468.048741067494	1
0	4764	474.048741067494	1
0	4764	474.048741067494	1
0	4822	480.048741067494	1
0	4822	480.048741067494	1
0	4875	486.048741067494	1
0	4875	486.048741067494	1
0	4937	492.048741067494	1
0	4937	492.048741067494	1
0	5003	498.048741067494	1
0	5003	498.048741067494	1
0	5064	504.048741067494	1
0	5064	504.048741067494	1
0	5128	510.048741067494	1
0	5128	510.048741067494	1
0	5192	516.048741067494	1
0	5192	516.048741067494	1
0	5255	522.048741067494	1
0	5255	522.048741067494	1
0	5319	528.048741067494	1
0	5319	528.048741067494	1
0	5382	534.048741067494	1
0	5382	534.048741067494	1
0	5446	540.048741067494	1
0	5446	540.048741067494	1
0	5506	546.048741067494	1
0	5506	546.048741067494	1
0	5574	552.048741067494	1
0	5574	552.048741067494	1
0	5637	558.048741067494	1
0	5637	558.048741067494	1
0	5700	564.048741067494	1
0	5700	564.048741067494	1
0	5763	570.048741067494	1
0	5763	570.048741067494	1
0	5824	576.048741067494	1
0	5824	576.048741067494	1
0	5892	582.048741067494	1
0	5892	582.048741067494	1
0	5952	588.048741067494	1
0	5952	588.048741067494	1
0	6018	594.048741067494	1
0	6018	594.048741067494	1
0	6082	600.048741067494	1
0	6082	600.048741067494	1
0	6139	606.048741067494	1
0	6139	606.048741067494	1
0	6207	612.048741067494	1
0	6207	612.048741067494	1
0	6273	618.048741067494	1
0	6273	618.048741067494	1
0	6332	624.048741067494	1
0	6332	624.048741067494	1
0	6397	630.048741067494	1
0	6397	630.048741067494	1
0	6465	636.048741067494	1
0	6465	636.048741067494	1
0	6524	642.048741067494	1
0	6524	642.048741067494	1
0	6582	648.048741067494	1
0	6582	648.048741067494	1
0	6637	654.048741067494	1
0	6637	654.048741067494	1
0	6692	660.048741067494	1
0	6692	660.048741067494	1
0	6750	666.048741067494	1
0	6750	666.048741067494	1
0	6807	672.048741067494	1
0	6807	672.048741067494	1
0	6858	678.048741067494	1
0	6858	678.048741067494	1
0	6911	684.048741067494	1
0	6911	684.048741067494	1
0	6969	690.048741067494	1
0	6969	690.048741067494	1
0	7027	696.048741067494	1
0	7027	696.048741067494	1
0	7078	702.048741067494	1
0	7078	702.048741067494	1
0	7132	708.048741067494	1
0	7132	708.048741067494	1
0	7193	714.048741067494	1
0	7193	714.048741067494	1
0	7256	720.048741067494	1
0	7256	720.048741067494	1
0	7324	726.048741067494	1
0	7324	726.048741067494	1
0	7387	732.048741067494	1
0	7387	732.048741067494	1
0	7449	738.048741067494	1
0	7449	738.048741067494	1
0	7511	744.048741067494	1
0	7511	744.048741067494	1
0	7574	750.048741067494	1
0	7574	750.048741067494	1
0	7643	756.048741067494	1
0	7643	756.048741067494	1
0	7699	762.048741067494	1
0	7699	762.048741067494	1
0	7765	768.048741067494	1
0	7765	768.048741067494	1
0	7832	774.048741067494	1
0	7832	774.048741067494	1
0	7893	780.048741067494	1
0	7893	780.048741067494	1
0	7958	786.048741067494	1
0	7958	786.048741067494	1
0	8020	792.048741067494	1
0	8020	792.048741067494	1
0	8080	798.048741067494	1
0	8080	798.048741067494	1
0	8147	804.048741067494	1
0	8147	804.048741067494	1
0	8215	810.048741067494	1
0	8215	810.048741067494	1
0	8276	816.048741067494	1
0	8276	816.048741067494	1
0	8335	822.048741067494	1
0	8335	822.048741067494	1
0	8401	828.048741067494	1
0	8401	828.048741067494	1
0	8465	834.048741067494	1
0	8465	834.048741067494	1
0	8516	839	1
0	8516	839	-1
0	8733	861	-1
0	8733	861	0
0	8748	864.048741067494	0
0	8748	864.048741067494	0
0	8802	870.048741067494	0
0	8802	870.048741067494	1
0	8866	876.048741067494	1
0	8866	876.048741067494	1
0	8928	882.048741067494	1
0	8928	882.048741067494	1
0	8993	888.048741067494	1
0	8993	888.048741067494	1
0	9056	894.048741067494	1
0	9056	894.048741067494	1
0	9117	900.048741067494	1
0	9117	900.048741067494	1
0	9184	906.048741067494	1
0	9184	906.048741067494	1
0	9249	912.048741067494	1
0	9249	912.048741067494	1
0	9309	918.048741067494	1
0	9309	918.048741067494	1
0	9376	924.048741067494	1
0	9376	924.048741067494	1
0	9433	930.048741067494	1
0	9433	930.048741067494	1
0	9485	936.048741067494	1
0	9485	936.048741067494	1
0	9541	942.048741067494	1
0	9541	942.048741067494	1
0	9607	948.048741067494	1
0	9607	948.048741067494	1
0	9666	954.048741067494	1
0	9666	954.048741067494	1
0	9732	960.048741067494	1
0	9732	960.048741067494	1
0	9797	966.048741067494	1
0	9797	966.048741067494	1
0	9858	972.048741067494	1
0	9858	972.048741067494	1
0	9920	978.048741067494	1
0	9920	978.048741067494	1
0	9988	984.048741067494	1
0	9988	984.048741067494	1
0	10051	990.048741067494	1
0	10051	990.048741067494	1
0	10114	996.048741067494	1
0	10114	996.048741067494	1
0	10177	1002.048741067494	1
0	10177	1002.048741067494	1
0	10237	1008.048741067494	1
0	10237	1008.048741067494	1
0	10303	1014.048741067494	1
0	10303	1014.048741067494	1
0	10368	1020.048741067494	1
0	10368	1020.048741067494	1
0	10433	1026.048741067494	1
0	10433	1026.048741067494	1
0	10491	1032.048741067494	1
0	10491	1032.048741067494	1
0	10552	1038.048741067494	1
0	10552	1038.048741067494	1
0	10621	1044.048741067494	1
0	10621	1044.048741067494	1
0	10686	1050.048741067494	1
0	10686	1050.048741067494	1
0	10748	1056.048741067494	1
0	10748	1056.048741067494	1
0	10810	1062.048741067494	1
0	10810	1062.048741067494	1
0	10873	1068.048741067494	1
0	10873	1068.048741067494	1
0	10936	1074.048741067494	1
0	10936	1074.048741067494	1
0	11002	1080.048741067494	1
0	11002	1080.048741067494	1
0	11069	1086.048741067494	1
0	11069	1086.048741067494	1
0	11115	1092.048741067494	1
0	11115	1092.048741067494	1
0	11174	1098.048741067494	1
0	11174	1098.048741067494	1
0	11239	1104.048741067494	1
0	11239	1104.048741067494	1
0	11298	1110.048741067494	1
0	11298	1110.048741067494	1
0	11362	1116.048741067494	1
0	11362	1116.048741067494	1
0	11427	1122.048741067494	1
0	11427	1122.048741067494	1
0	11489	1128.048741067494	1
0	11489	1128.048741067494	1
0	11557	1134.048741067494	1
0	11557	1134.048741067494	1
0	11618	1140.048741067494	1
0	11618	1140.048741067494	1
0	11680	1146.048741067494	1
0	11680	1146.048741067494	1
0	11742	1152.048741067494	1
0	11742	1152.048741067494	1
0	11811	1158.048741067494	1
0	11811	1158.048741067494	1
0	11875	1164.048741067494	1
0	11875	1164.048741067494	1
0	11934	1170.048741067494	1
0	11934	1170.048741067494	1
0	11995	1176.048741067494	1
0	11995	1176.048741067494	1
0	12060	1182.048741067494	1
0	12060	1182.048741067494	1
0	12126	1188.048741067494	1
0	12126	1188.048741067494	1
0	12190	1194.048741067494	1
0	12190	1194.048741067494	1
0	12252	1200.048741067494	1
0	12252	1200.048741067494	1
0	12316	1206.048741067494	1
0	12316	1206.048741067494	1
0	12375	1212.048741067494	1
0	12375	1212.048741067494	1
0	12444	1218.048741067494	1
0	12444	1218.048741067494	1
0	12508	1224.048741067494	1
0	12508	1224.048741067494	1
0	12567	1230.048741067494	1
0	12567	1230.048741067494	1
0	12634	1236.048741067494	1
0	12634	1236.048741067494	1
0	12698	1242.048741067494	1
0	12698	1242.048741067494	1
0	12751	1248.048741067494	1
0	12751	1248.048741067494	1
0	12815	1254.048741067494	1
0	12815	1254.048741067494	1
0	12881	1260.048741067494	1
0	12881	1260.048741067494	1
0	12942	1266.048741067494	1
0	12942	1266.048741067494	1
0	13009	1272.048741067494	1
0	13009	1272.048741067494	1
0	13072	1278.048741067494	1
0	13072	1278.048741067494	1
0	13130	1284.048741067494	1
0	13130	1284.048741067494	1
0	13196	1290.048741067494	1
0	13196	1290.048741067494	1
0	13263	1296.048741067494	1
0	13263	1296.048741067494	1
0	13328	1302.048741067494	1
0	13328	1302.048741067494	1
0	13387	1308.048741067494	1
0	13387	1308.048741067494	1
0	13453	1314.048741067494	1
0	13453	1314.048741067494	1
0	13514	1320.048741067494	1
0	13514	1320.048741067494	1
0	13578	1326.048741067494	1
0	13578	1326.048741067494	1
0	13640	1332.048741067494	1
0	13640	1332.048741067494	1
0	13705	1338.048741067494	1
0	13705	1338.048741067494	1
0	13769	1344.048741067494	1
0	13769	1344.048741067494	1
0	13831	1350.048741067494	1
0	13831	1350.048741067494	1
0	13896	1356.048741067494	1
0	13896	1356.048741067494	1
0	13958	1362.048741067494	1
0	13958	1362.048741067494	1
0	14020	1368.048741067494	1
0	14020	1368.048741067494	1
0	14087	1374.048741067494	1
0	14087	1374.048741067494	1
0	14152	1380.048741067494	1
0	14152	1380.048741067494	1
0	14211	1386.048741067494	1
0	14211	1386.048741067494	1
0	14276	1392.048741067494	1
0	14276	1392.048741067494	1
0	14341	1398.048741067494	1
0	14341	1398.048741067494	1
0	14402	1404.048741067494	1
0	14402	1404.048741067494	1
0	14468	1410.048741067494	1
0	14468	1410.048741067494	1
0	14509	1411	1
0	14509	1411	-1
0	14524	1415	-1
0	14524	1415	0
0	14537	1416.048741067494	0
0	14537	1416.048741067494	0
0	14587	1422.048741067494	0
0	14587	1422.048741067494	1
0	14650	1428.048741067494	1
0	14650	1428.048741067494	1
0	14717	1434.048741067494	1
0	14717	1434.048741067494	1
0	14775	1440.048741067494	1
0	14775	1440.048741067494	1
0	14843	1446.048741067494	1
0	14843	1446.048741067494	1
0	14909	1452.048741067494	1
0	14909	1452.048741067494	1
0	14969	1458.048741067494	1
0	14969	1458.048741067494	1
0	15032	1464.048741067494	1
0	15032	1464.048741067494	1
0	15093	1470.048741067494	1
0	15093	1470.048741067494	1
0	15161	1476.048741067494	1
0	15161	1476.048741067494	1
1	137	18	1
1	137	18	1
1	199	24	1
1	199	24	1
1	263	30	1
1	263	30	1
1	328	36	1
1	328	36	1
1	382	42	1
1	382	42	1
1	439	48	1
1	439	48	1
1	491	54	1
1	491	54	1
1	547	60	1
1	547	60	1
1	608	66	1
1	608	66	1
1	659	72	1
1	659	72	1
1	721	78	1
1	721	78	1
1	783	84	1
1	783	84	1
1	848	90	1
1	848	90	1
1	917	96	1
1	917	96	1
1	980	102	1
1	980	102	1
1	1038	108	1
1	1038	108	1
1	1101	114	1
1	1101	114	1
1	1166	120	1
1	1166	120	1
1	1232	126	1
1	1232	126	1
1	1298	132	1
1	1298	132	1
1	1356	138	1
1	1356	138	1
1	1416	144	1
1	1416	144	1
1	1484	150	1
1	1484	150	1
1	1488	150	1
1	1488	150	-1
1	1655	166	-1
1	1655	166	0
1	1662	168.001783251212	0
1	1662	168.001783251212	0
1	1710	174.001783251212	0
1	1710	174.001783251212	1
1	1764	180.001783251212	1
1	1764	180.001783251212	1
1	1823	186.001783251212	1
1	1823	186.001783251212	1
1	1874	192.001783251212	1
1	1874	192.001783251212	1
1	1926	198.001783251212	1
1	1926	198.001783251212	1
1	1985	204.001783251212	1
1	1985	204.001783251212	1
1	2049	210.001783251212	1
1	2049	210.001783251212	1
1	2110	216.001783251212	1
1	2110	216.001783251212	1
1	2173	222.001783251212	1
1	2173	222.001783251212	1
1	2235	228.001783251212	1
1	2235	228.001783251212	1
1	2300	234.001783251212	1
1	2300	234.001783251212	1
1	2367	240.001783251212	1
1	2367	240.001783251212	1
1	2429	246.001783251212	1
1	2429	246.001783251212	1
1	2491	252.001783251212	1
1	2491	252.001783251212	1
1	2553	258.001783251212	1
1	2553	258.001783251212	1
1	2618	264.001783251212	1
1	2618	264.001783251212	1
1	2685	270.001783251212	1
1	2685	270.001783251212	1
1	2746	276.001783251212	1
1	2746	276.001783251212	1
1	2809	282.001783251212	1
1	2809	282.001783251212	1
1	2871	288.001783251212	1
1	2871	288.001783251212	1
1	2933	294.001783251212	1
1	2933	294.001783251212	1
1	2997	300.001783251212	1
1	2997	300.001783251212	1
1	3065	306.001783251212	1
1	3065	306.001783251212	1
1	3124	312.001783251212	1
1	3124	312.001783251212	1
1	3190	318.001783251212	1
1	3190	318.001783251212	1
1	3254	324.001783251212	1
1	3254	324.001783251212	1
1	3314	330.001783251212	1
1	3314	330.001783251212	1
1	3380	336.001783251212	1
1	3380	336.001783251212	1
1	3446	342.001783251212	1
1	3446	342.001783251212	1
1	3504	348.001783251212	1
1	3504	348.001783251212	1
1	3546	354.001783251212	1
1	3546	354.001783251212	1
1	3594	360.001783251212	1
1	3594	360.001783251212	1
1	3650	366.001783251212	1
1	3650	366.001783251212	1
1	3704	372.001783251212	1
1	3704	372.001783251212	1
1	3760	378.001783251212	1
1	3760	378.001783251212	1
1	3810	384.001783251212	1
1	3810	384.001783251212	1
1	3874	390.001783251212	1
1	3874	390.001783251212	1
1	3940	396.001783251212	1
1	3940	396.001783251212	1
1	3993	402.001783251212	1
1	3993	402.001783251212	1
1	4058	408.001783251212	1
1	4058	408.001783251212	1
1	4122	414.001783251212	1
1	4122	414.001783251212	1
1	4186	420.001783251212	1
1	4186	420.001783251212	1
1	4251	426.001783251212	1
1	4251	426.001783251212	1
1	4310	432.001783251212	1
1	4310	432.001783251212	1
1	4374	438.001783251212	1
1	4374	438.001783251212	1
1	4440	444.001783251212	1
1	4440	444.001783251212	1
1	4501	450.001783251212	1
1	4501	450.001783251212	1
1	4567	456.001783251212	1
1	4567	456.001783251212	1
1	4628	462.001783251212	1
1	4628	462.001783251212	1
1	4689	468.001783251212	1
1	4689	468.001783251212	1
1	4758	474.001783251212	1
1	4758	474.001783251212	1
1	4816	480.001783251212	1
1	4816	480.001783251212	1
1	4869	486.001783251212	1
1	4869	486.001783251212	1
1	4931	492.001783251212	1
1	4931	492.001783251212	1
1	4996	498.001783251212	1
1	4996	498.001783251212	1
1	5058	504.001783251212	1
1	5058	504.001783251212	1
1	5122	510.001783251212	1
1	5122	510.001783251212	1
1	5186	516.001783251212	1
1	5186	516.001783251212	1
1	5249	522.001783251212	1
1	5249	522.001783251212	1
1	5313	528.001783251212	1
1	5313	528.001783251212	1
1	5376	534.001783251212	1
1	5376	534.001783251212	1
1	5440	540.001783251212	1
1	5440	540.001783251212	1
1	5500	546.001783251212	1
1	5500	546.001783251212	1
1	5568	552.001783251212	1
1	5568	552.001783251212	1
1	5631	558.001783251212	1
1	5631	558.001783251212	1
1	5694	564.001783251212	1
1	5694	564.001783251212	1
1	5756	570.001783251212	1
1	5756	570.001783251212	1
1	5818	576.001783251212	1
1	5818	576.001783251212	1
1	5886	582.001783251212	1
1	5886	582.001783251212	1
1	5946	588.001783251212	1
1	5946	588.001783251212	1
1	6012	594.001783251212	1
1	6012	594.001783251212	1
1	6076	600.001783251212	1
1	6076	600.001783251212	1
1	6133	606.001783251212	1
1	6133	606.001783251212	1
1	6201	612.001783251212	1
1	6201	612.001783251212	1
1	6267	618.001783251212	1
1	6267	618.001783251212	1
1	6326	624.001783251212	1
1	6326	624.001783251212	1
1	6391	630.001783251212	1
1	6391	630.001783251212	1
1	6459	636.001783251212	1
1	6459	636.001783251212	1
1	6518	642.001783251212	1
1	6518	642.001783251212	1
1	6576	648.001783251212	1
1	6576	648.001783251212	1
1	6631	654.001783251212	1
1	6631	654.001783251212	1
1	6686	660.001783251212	1
1	6686	660.001783251212	1
1	6743	666.001783251212	1
1	6743	666.001783251212	1
1	6801	672.001783251212	1
1	6801	672.001783251212	1
1	6852	678.001783251212	1
1	6852	678.001783251212	1
1	6905	684.001783251212	1
1	6905	684.001783251212	1
1	6963	690.001783251212	1
1	6963	690.001783251212	1
1	7021	696.001783251212	1
1	7021	696.001783251212	1
1	7072	702.001783251212	1
1	7072	702.001783251212	1
1	7126	708.001783251212	1
1	7126	708.001783251212	1
1	7187	714.001783251212	1
1	7187	714.001783251212	1
1	7250	720.001783251212	1
1	7250	720.001783251212	1
1	7318	726.001783251212	1
1	7318	726.001783251212	1
1	7381	732.001783251212	1
1	7381	732.001783251212	1
1	7443	738.001783251212	1
1	7443	738.001783251212	1
1	7505	744.001783251212	1
1	7505	744.001783251212	1
1	7568	750.001783251212	1
1	7568	750.001783251212	1
1	7637	756.001783251212	1
1	7637	756.001783251212	1
1	7693	762.001783251212	1
1	7693	762.001783251212	1
1	7759	768.001783251212	1
1	7759	768.001783251212	1
1	7826	774.001783251212	1
1	7826	774.001783251212	1
1	7886	780.001783251212	1
1	7886	780.001783251212	1
1	7952	786.001783251212	1
1	7952	786.001783251212	1
1	8014	792.001783251212	1
1	8014	792.001783251212	1
1	8074	798.001783251212	1
1	8074	798.001783251212	1
1	8141	804.001783251212	1
1	8141	804.001783251212	1
1	8209	810.001783251212	1
1	8209	810.001783251212	1
1	8270	816.001783251212	1
1	8270	816.001783251212	1
1	8329	822.001783251212	1
1	8329	822.001783251212	1
1	8395	828.001783251212	1
1	8395	828.001783251212	1
1	8459	834.001783251212	1
1	8459	834.001783251212	1
1	8526	840.001783251212	1
1	8526	840.001783251212	1
1	8581	846.001783251212	1
1	8581	846.001783251212	1
1	8634	852.001783251212	1
1	8634	852.001783251212	1
1	8687	858.001783251212	1
1	8687	858.001783251212	1
1	8742	864.001783251212	1
1	8742	864.001783251212	1
1	8796	870.001783251212	1
1	8796	870.001783251212	1
1	8860	876.001783251212	1
1	8860	876.001783251212	1
1	8922	882.001783251212	1
1	8922	882.001783251212	1
1	8987	888.001783251212	1
1	8987	888.001783251212	1
1	9050	894.001783251212	1
1	9050	894.001783251212	1
1	9111	900.001783251212	1
1	9111	900.001783251212	1
1	9178	906.001783251212	1
1	9178	906.001783251212	1
1	9243	912.001783251212	1
1	9243	912.001783251212	1
1	9303	918.001783251212	1
1	9303	918.001783251212	1
1	9369	924.001783251212	1
1	9369	924.001783251212	1
1	9427	930.001783251212	1
1	9427	930.001783251212	1
1	9479	936.001783251212	1
1	9479	936.001783251212	1
1	9535	942.001783251212	1
1	9535	942.001783251212	1
1	9601	948.001783251212	1
1	9601	948.001783251212	1
1	9660	954.001783251212	1
1	9660	954.001783251212	1
1	9726	960.001783251212	1
1	9726	960.001783251212	1
1	9791	966.001783251212	1
1	9791	966.001783251212	1
1	9852	972.001783251212	1
1	9852	972.001783251212	1
1	9913	978.001783251212	1
1	9913	978.001783251212	1
1	9981	984.001783251212	1
1	9981	984.001783251212	1
1	10045	990.001783251212	1
1	10045	990.001783251212	1
1	10108	996.001783251212	1
1	10108	996.001783251212	1
1	10171	1002.001783251212	1
1	10171	1002.001783251212	1
1	10231	1008.001783251212	1
1	10231	1008.001783251212	1
1	10297	1014.001783251212	1
1	10297	1014.001783251212	1
1	10362	1020.001783251212	1
1	10362	1020.001783251212	1
1	10427	1026.001783251212	1
1	10427	1026.001783251212	1
1	10484	1032.001783251212	1
1	10484	1032.001783251212	1
1	10546	1038.001783251212	1
1	10546	1038.001783251212	1
1	10615	1044.001783251212	1
1	10615	1044.001783251212	1
1	10678	1050.001783251212	1
1	10678	1050.001783251212	1
1	10742	1056.001783251212	1
1	10742	1056.001783251212	1
1	10804	1062.001783251212	1
1	10804	1062.001783251212	1
1	10867	1068.001783251212	1
1	10867	1068.001783251212	1
1	10930	1074.001783251212	1
1	10930	1074.001783251212	1
1	10996	1080.001783251212	1
1	10996	1080.001783251212	1
1	11062	1086.001783251212	1
1	11062	1086.001783251212	1
1	11109	1092.001783251212	1
1	11109	1092.001783251212	1
1	11167	1098.001783251212	1
1	11167	1098.001783251212	1
1	11233	1104.001783251212	1
1	11233	1104.001783251212	1
1	11292	1110.001783251212	1
1	11292	1110.001783251212	1
1	11356	1116.001783251212	1
1	11356	1116.001783251212	1
1	11421	1122.001783251212	1
1	11421	1122.001783251212	1
1	11483	1128.001783251212	1
1	11483	1128.001783251212	1
1	11551	1134.001783251212	1
1	11551	1134.001783251212	1
1	11612	1140.001783251212	1
1	11612	1140.001783251212	1
1	11674	1146.001783251212	1
1	11674	1146.001783251212	1
1	11736	1152.001783251212	1
1	11736	1152.001783251212	1
1	11804	1158.001783251212	1
1	11804	1158.001783251212	1
1	11869	1164.001783251212	1
1	11869	1164.001783251212	1
1	11928	1170.001783251212	1
1	11928	1170.001783251212	1
1	11989	1176.001783251212	1
1	11989	1176.001783251212	1
1	12054	1182.001783251212	1
1	12054	1182.001783251212	1
1	12120	1188.001783251212	1
1	12120	1188.001783251212	1
1	12183	1194.001783251212	1
1	12183	1194.001783251212	1
1	12246	1200.001783251212	1
1	12246	1200.001783251212	1
1	12310	1206.001783251212	1
1	12310	1206.001783251212	1
1	12369	1212.001783251212	1
1	12369	1212.001783251212	1
1	12438	1218.001783251212	1
1	12438	1218.001783251212	1
1	12502	1224.001783251212	1
1	12502	1224.001783251212	1
1	12561	1230.001783251212	1
1	12561	1230.001783251212	1
1	12628	1236.001783251212	1
1	12628	1236.001783251212	1
1	12695	1242.001783251212	1
1	12695	1242.001783251212	1
1	12745	1248.001783251212	1
1	12745	1248.001783251212	1
1	12809	1254.001783251212	1
1	12809	1254.001783251212	1
1	12875	1260.001783251212	1
1	12875	1260.001783251212	1
1	12936	1266.001783251212	1
1	12936	1266.001783251212	1
1	13003	1272.001783251212	1
1	13003	1272.001783251212	1
1	13066	1278.001783251212	1
1	13066	1278.001783251212	1
1	13124	1284.001783251212	1
1	13124	1284.001783251212	1
1	13190	1290.001783251212	1
1	13190	1290.001783251212	1
1	13257	1296.001783251212	1
1	13257	1296.001783251212	1
1	13322	1302.001783251212	1
1	13322	1302.001783251212	1
1	13381	1308.001783251212	1
1	13381	1308.001783251212	1
1	13447	1314.001783251212	1
1	13447	1314.001783251212	1
1	13508	1320.001783251212	1
1	13508	1320.001783251212	1
1	13572	1326.001783251212	1
1	13572	1326.001783251212	1
1	13634	1332.001783251212	1
1	13634	1332.001783251212	1
1	13699	1338.001783251212	1
1	13699	1338.001783251212	1
1	13763	1344.001783251212	1
1	13763	1344.001783251212	1
1	13825	1350.001783251212	1
1	13825	1350.001783251212	1
1	13890	1356.001783251212	1
1	13890	1356.001783251212	1
1	13952	1362.001783251212	1
1	13952	1362.001783251212	1
1	14014	1368.001783251212	1
1	14014	1368.001783251212	1
1	14081	1374.001783251212	1
1	14081	1374.001783251212	1
1	14146	1380.001783251212	1
1	14146	1380.001783251212	1
1	14205	1386.001783251212	1
1	14205	1386.001783251212	1
1	14270	1392.001783251212	1
1	14270	1392.001783251212	1
1	14335	1398.001783251212	1
1	14335	1398.001783251212	1
1	14396	1404.001783251212	1
1	14396	1404.001783251212	1
1	14462	1410.001783251212	1
1	14462	1410.001783251212	1
1	14530	1416.001783251212	1
1	14530	1416.001783251212	1
1	14581	1422.001783251212	1
1	14581	1422.001783251212	1
1	14644	1428.001783251212	1
1	14644	1428.001783251212	1
1	14711	1434.001783251212	1
1	14711	1434.001783251212	1
1	14769	1440.001783251212	1
1	14769	1440.001783251212	1
1	14837	1446.001783251212	1
1	14837	1446.001783251212	1
1	14902	1452.001783251212	1
1	14902	1452.001783251212	1
1	14963	1458.001783251212	1
1	14963	1458.001783251212	1
1	15026	1464.001783251212	1
1	15026	1464.001783251212	1
1	15087	1470.001783251212	1
1	15087	1470.001783251212	1
1	15155	1476.001783251212	1
1	15155	1476.001783251212	1
2	138	18	1
2	138	18	1
2	200	24	1
2	200	24	1
2	264	30	1
2	264	30	1
2	329	36	1
2	329	36	1
2	383	42	1
2	383	42	1
2	440	48	1
2	440	48	1
2	492	54	1
2	492	54	1
2	548	60	1
2	548	60	1
2	609	66	1
2	609	66	1
2	660	72	1
2	660	72	1
2	722	78	1
2	722	78	1
2	784	84	1
2	784	84	1
2	849	90	1
2	849	90	1
2	918	96	1
2	918	96	1
2	981	102	1
2	981	102	1
2	1039	108	1
2	1039	108	1
2	1102	114	1
2	1102	114	1
2	1167	120	1
2	1167	120	1
2	1233	126	1
2	1233	126	1
2	1299	132	1
2	1299	132	1
2	1357	138	1
2	1357	138	1
2	1417	144	1
2	1417	144	1
2	1485	150	1
2	1485	150	1
2	1547	156	1
2	1547	156	1
2	1604	162	1
2	1604	162	1
2	1659	168	1
2	1659	168	1
2	1707	174	1
2	1707	174	1
2	1759	180	1
2	1759	180	1
2	1818	186	1
2	1818	186	1
2	1871	192	1
2	1871	192	1
2	1924	198	1
2	1924	198	1
2	1983	204	1
2	1983	204	1
2	2045	210	1
2	2045	210	1
2	2105	216	1
2	2105	216	1
2	2171	222	1
2	2171	222	1
2	2233	228	1
2	2233	228	1
2	2298	234	1
2	2298	234	1
2	2363	240	1
2	2363	240	1
2	2424	246	1
2	2424	246	1
2	2489	252	1
2	2489	252	1
2	2551	258	1
2	2551	258	1
2	2616	264	1
2	2616	264	1
2	2681	270	1
2	2681	270	1
2	2741	276	1
2	2741	276	1
2	2807	282	1
2	2807	282	1
2	2869	288	1
2	2869	288	1
2	2931	294	1
2	2931	294	1
2	2993	300	1
2	2993	300	1
2	3060	306	1
2	3060	306	1
2	3122	312	1
2	3122	312	1
2	3188	318	1
2	3188	318	1
2	3252	324	1
2	3252	324	1
2	3310	330	1
2	3310	330	1
2	3375	336	1
2	3375	336	1
2	3443	342	1
2	3443	342	1
2	3481	345	1
2	3481	345	-1
2	3737	373	-1
2	3737	373	0
2	3762	378.022585332456	0
2	3762	378.022585332456	0
2	3812	384.022585332456	0
2	3812	384.022585332456	1
2	3876	390.022585332456	1
2	3876	390.022585332456	1
2	3942	396.022585332456	1
2	3942	396.022585332456	1
2	3995	402.022585332456	1
2	3995	402.022585332456	1
2	4060	408.022585332456	1
2	4060	408.022585332456	1
2	4124	414.022585332456	1
2	4124	414.022585332456	1
2	4188	420.022585332456	1
2	4188	420.022585332456	1
2	4253	426.022585332456	1
2	4253	426.022585332456	1
2	4312	432.022585332456	1
2	4312	432.022585332456	1
2	4376	438.022585332456	1
2	4376	438.022585332456	1
2	4442	444.022585332456	1
2	4442	444.022585332456	1
2	4503	450.022585332456	1
2	4503	450.022585332456	1
2	4569	456.022585332456	1
2	4569	456.022585332456	1
2	4630	462.022585332456	1
2	4630	462.022585332456	1
2	4691	468.022585332456	1
2	4691	468.022585332456	1
2	4759	474.022585332456	1
2	4759	474.022585332456	1
2	4817	480.022585332456	1
2	4817	480.022585332456	1
2	4870	486.022585332456	1
2	4870	486.022585332456	1
2	4932	492.022585332456	1
2	4932	492.022585332456	1
2	4998	498.022585332456	1
2	4998	498.022585332456	1
2	5059	504.022585332456	1
2	5059	504.022585332456	1
2	5123	510.022585332456	1
2	5123	510.022585332456	1
2	5187	516.022585332456	1
2	5187	516.022585332456	1
2	5250	522.022585332456	1
2	5250	522.022585332456	1
2	5314	528.022585332456	1
2	5314	528.022585332456	1
2	5377	534.022585332456	1
2	5377	534.022585332456	1
2	5441	540.022585332456	1
2	5441	540.022585332456	1
2	5501	546.022585332456	1
2	5501	546.022585332456	1
2	5569	552.022585332456	1
2	5569	552.022585332456	1
2	5632	558.022585332456	1
2	5632	558.022585332456	1
2	5695	564.022585332456	1
2	5695	564.022585332456	1
2	5757	570.022585332456	1
2	5757	570.022585332456	1
2	5819	576.022585332456	1
2	5819	576.022585332456	1
2	5887	582.022585332456	1
2	5887	582.022585332456	1
2	5947	588.022585332456	1
2	5947	588.022585332456	1
2	6013	594.022585332456	1
2	6013	594.022585332456	1
2	6077	600.022585332456	1
2	6077	600.022585332456	1
2	6134	606.022585332456	1
2	6134	606.022585332456	1
2	6202	612.022585332456	1
2	6202	612.022585332456	1
2	6268	618.022585332456	1
2	6268	618.022585332456	1
2	6327	624.022585332456	1
2	6327	624.022585332456	1
2	6392	630.022585332456	1
2	6392	630.022585332456	1
2	6460	636.022585332456	1
2	6460	636.022585332456	1
2	6519	642.022585332456	1
2	6519	642.022585332456	1
2	6577	648.022585332456	1
2	6577	648.022585332456	1
2	6632	654.022585332456	1
2	6632	654.022585332456	1
2	6687	660.022585332456	1
2	6687	660.022585332456	1
2	6744	666.022585332456	1
2	6744	666.022585332456	1
2	6802	672.022585332456	1
2	6802	672.022585332456	1
2	6853	678.022585332456	1
2	6853	678.022585332456	1
2	6906	684.022585332456	1
2	6906	684.022585332456	1
2	6964	690.022585332456	1
2	6964	690.022585332456	1
2	7022	696.022585332456	1
2	7022	696.022585332456	1
2	7073	702.022585332456	1
2	7073	702.022585332456	1
2	7127	708.022585332456	1
2	7127	708.022585332456	1
2	7188	714.022585332456	1
2	7188	714.022585332456	1
2	7251	720.022585332456	1
2	7251	720.022585332456	1
2	7319	726.022585332456	1
2	7319	726.022585332456	1
2	7382	732.022585332456	1
2	7382	732.022585332456	1
2	7444	738.022585332456	1
2	7444	738.022585332456	1
2	7506	744.022585332456	1
2	7506	744.022585332456	1
2	7569	750.022585332456	1
2	7569	750.022585332456	1
2	7638	756.022585332456	1
2	7638	756.022585332456	1
2	7694	762.022585332456	1
2	7694	762.022585332456	1
2	7760	768.022585332456	1
2	7760	768.022585332456	1
2	7827	774.022585332456	1
2	7827	774.022585332456	1
2	7888	780.022585332456	1
2	7888	780.022585332456	1
2	7953	786.022585332456	1
2	7953	786.022585332456	1
2	8015	792.022585332456	1
2	8015	792.022585332456	1
2	8075	798.022585332456	1
2	8075	798.022585332456	1
2	8142	804.022585332456	1
2	8142	804.022585332456	1
2	8210	810.022585332456	1
2	8210	810.022585332456	1
2	8271	816.022585332456	1
2	8271	816.022585332456	1
2	8330	822.022585332456	1
2	8330	822.022585332456	1
2	8396	828.022585332456	1
2	8396	828.022585332456	1
2	8460	834.022585332456	1
2	8460	834.022585332456	1
2	8527	840.022585332456	1
2	8527	840.022585332456	1
2	8582	846.022585332456	1
2	8582	846.022585332456	1
2	8635	852.022585332456	1
2	8635	852.022585332456	1
2	8688	858.022585332456	1
2	8688	858.022585332456	1
2	8743	864.022585332456	1
2	8743	864.022585332456	1
2	8797	870.022585332456	1
2	8797	870.022585332456	1
2	8861	876.022585332456	1
2	8861	876.022585332456	1
2	8923	882.022585332456	1
2	8923	882.022585332456	1
2	8988	888.022585332456	1
2	8988	888.022585332456	1
2	9051	894.022585332456	1
2	9051	894.022585332456	1
2	9112	900.022585332456	1
2	9112	900.022585332456	1
2	9179	906.022585332456	1
2	9179	906.022585332456	1
2	9244	912.022585332456	1
2	9244	912.022585332456	1
2	9304	918.022585332456	1
2	9304	918.022585332456	1
2	9370	924.022585332456	1
2	9370	924.022585332456	1
2	9428	930.022585332456	1
2	9428	930.022585332456	1
2	9480	936.022585332456	1
2	9480	936.022585332456	1
2	9536	942.022585332456	1
2	9536	942.022585332456	1
2	9602	948.022585332456	1
2	9602	948.022585332456	1
2	9661	954.022585332456	1
2	9661	954.022585332456	1
2	9727	960.022585332456	1
2	9727	960.022585332456	1
2	9792	966.022585332456	1
2	9792	966.022585332456	1
2	9853	972.022585332456	1
2	9853	972.022585332456	1
2	9914	978.022585332456	1
2	9914	978.022585332456	1
2	9983	984.022585332456	1
2	9983	984.022585332456	1
2	10046	990.022585332456	1
2	10046	990.022585332456	1
2	10109	996.022585332456	1
2	10109	996.022585332456	1
2	10172	1002.022585332456	1
2	10172	1002.022585332456	1
2	10232	1008.022585332456	1
2	10232	1008.022585332456	1
2	10298	1014.022585332456	1
2	10298	1014.022585332456	1
2	10363	1020.022585332456	1
2	10363	1020.022585332456	1
2	10428	1026.022585332456	1
2	10428	1026.022585332456	1
2	10486	1032.022585332456	1
2	10486	1032.022585332456	1
2	10547	1038.022585332456	1
2	10547	1038.022585332456	1
2	10616	1044.022585332456	1
2	10616	1044.022585332456	1
2	10680	1050.022585332456	1
2	10680	1050.022585332456	1
2	10743	1056.022585332456	1
2	10743	1056.022585332456	1
2	10805	1062.022585332456	1
2	10805	1062.022585332456	1
2	10868	1068.022585332456	1
2	10868	1068.022585332456	1
2	10931	1074.022585332456	1
2	10931	1074.022585332456	1
2	10997	1080.022585332456	1
2	10997	1080.022585332456	1
2	11064	1086.022585332456	1
2	11064	1086.022585332456	1
2	11110	1092.022585332456	1
2	11110	1092.022585332456	1
2	11168	1098.022585332456	1
2	11168	1098.022585332456	1
2	11234	1104.022585332456	1
2	11234	1104.022585332456	1
2	11293	1110.022585332456	1
2	11293	1110.022585332456	1
2	11357	1116.022585332456	1
2	11357	1116.022585332456	1
2	11422	1122.022585332456	1
2	11422	1122.022585332456	1
2	11484	1128.022585332456	1
2	11484	1128.022585332456	1
2	11552	1134.022585332456	1
2	11552	1134.022585332456	1
2	11613	1140.022585332456	1
2	11613	1140.022585332456	1
2	11675	1146.022585332456	1
2	11675	1146.022585332456	1
2	11737	1152.022585332456	1
2	11737	1152.022585332456	1
2	11806	1158.022585332456	1
2	11806	1158.022585332456	1
2	11870	1164.022585332456	1
2	11870	1164.022585332456	1
2	11929	1170.022585332456	1
2	11929	1170.022585332456	1
2	11990	1176.022585332456	1
2	11990	1176.022585332456	1
2	12055	1182.022585332456	1
2	12055	1182.022585332456	1
2	12121	1188.022585332456	1
2	12121	1188.022585332456	1
2	12185	1194.022585332456	1
2	12185	1194.022585332456	1
2	12247	1200.022585332456	1
2	12247	1200.022585332456	1
2	12311	1206.022585332456	1
2	12311	1206.022585332456	1
2	12370	1212.022585332456	1
2	12370	1212.022585332456	1
2	12439	1218.022585332456	1
2	12439	1218.022585332456	1
2	12503	1224.022585332456	1
2	12503	1224.022585332456	1
2	12562	1230.022585332456	1
2	12562	1230.022585332456	1
2	12629	1236.022585332456	1
2	12629	1236.022585332456	1
2	12676	1238	1
2	12676	1238	-1
2	12681	1240	-1
2	12681	1240	0
2	12696	1242.022585332456	0
2	12696	1242.022585332456	0
2	12746	1248.022585332456	0
2	12746	1248.022585332456	1
2	12810	1254.022585332456	1
2	12810	1254.022585332456	1
2	12876	1260.022585332456	1
2	12876	1260.022585332456	1
2	12937	1266.022585332456	1
2	12937	1266.022585332456	1
2	13004	1272.022585332456	1
2	13004	1272.022585332456	1
2	13067	1278.022585332456	1
2	13067	1278.022585332456	1
2	13125	1284.022585332456	1
2	13125	1284.022585332456	1
2	13191	1290.022585332456	1
2	13191	1290.022585332456	1
2	13258	1296.022585332456	1
2	13258	1296.022585332456	1
2	13323	1302.022585332456	1
2	13323	1302.022585332456	1
2	13382	1308.022585332456	1
2	13382	1308.022585332456	1
2	13448	1314.022585332456	1
2	13448	1314.022585332456	1
2	13509	1320.022585332456	1
2	13509	1320.022585332456	1
2	13573	1326.022585332456	1
2	13573	1326.022585332456	1
2	13635	1332.022585332456	1
2	13635	1332.022585332456	1
2	13700	1338.022585332456	1
2	13700	1338.022585332456	1
2	13764	1344.022585332456	1
2	13764	1344.022585332456	1
2	13826	1350.022585332456	1
2	13826	1350.022585332456	1
2	13891	1356.022585332456	1
2	13891	1356.022585332456	1
2	13953	1362.022585332456	1
2	13953	1362.022585332456	1
2	14015	1368.022585332456	1
2	14015	1368.022585332456	1
2	14082	1374.022585332456	1
2	14082	1374.022585332456	1
2	14147	1380.022585332456	1
2	14147	1380.022585332456	1
2	14206	1386.022585332456	1
2	14206	1386.022585332456	1
2	14271	1392.022585332456	1
2	14271	1392.022585332456	1
2	14336	1398.022585332456	1
2	14336	1398.022585332456	1
2	14397	1404.022585332456	1
2	14397	1404.022585332456	1
2	14463	1410.022585332456	1
2	14463	1410.022585332456	1
2	14532	1416.022585332456	1
2	14532	1416.022585332456	1
2	14582	1422.022585332456	1
2	14582	1422.022585332456	1
2	14645	1428.022585332456	1
2	14645	1428.022585332456	1
2	14712	1434.022585332456	1
2	14712	1434.022585332456	1
2	14770	1440.022585332456	1
2	14770	1440.022585332456	1
2	14838	1446.022585332456	1
2	14838	1446.022585332456	1
2	14903	1452.022585332456	1
2	14903	1452.022585332456	1
2	14964	1458.022585332456	1
2	14964	1458.022585332456	1
2	15027	1464.022585332456	1
2	15027	1464.022585332456	1
2	15088	1470.022585332456	1
2	15088	1470.022585332456	1
2	15156	1476.022585332456	1
2	15156	1476.022585332456	1
3	139	18	1
3	139	18	1
3	201	24	1
3	201	24	1
3	265	30	1
3	265	30	1
3	324	35	1
3	324	35	-1
3	611	66	-1
3	611	66	0
3	622	66.054222476883	0
3	622	66.054222476883	0
3	672	72.054222476883	0
3	672	72.054222476883	1
3	734	78.054222476883	1
3	734	78.054222476883	1
3	796	84.054222476883	1
3	796	84.054222476883	1
3	865	90.054222476883	1
3	865	90.054222476883	1
3	931	96.054222476883	1
3	931	96.054222476883	1
3	993	102.054222476883	1
3	993	102.054222476883	1
3	1051	108.054222476883	1
3	1051	108.054222476883	1
3	1114	114.054222476883	1
3	1114	114.054222476883	1
3	1183	120.054222476883	1
3	1183	120.054222476883	1
3	1246	126.054222476883	1
3	1246	126.054222476883	1
3	1311	132.054222476883	1
3	1311	132.054222476883	1
3	1369	138.054222476883	1
3	1369	138.054222476883	1
3	1429	144.054222476883	1
3	1429	144.054222476883	1
3	1500	150.054222476883	1
3	1500	150.054222476883	1
3	1557	156.054222476883	1
3	1557	156.054222476883	1
3	1613	162.054222476883	1
3	1613	162.054222476883	1
3	1667	168.054222476883	1
3	1667	168.054222476883	1
3	1719	174.054222476883	1
3	1719	174.054222476883	1
3	1773	180.054222476883	1
3	1773	180.054222476883	1
3	1832	186.054222476883	1
3	1832	186.054222476883	1
3	1883	192.054222476883	1
3	1883	192.054222476883	1
3	1935	198.054222476883	1
3	1935	198.054222476883	1
3	1995	204.054222476883	1
3	1995	204.054222476883	1
3	2059	210.054222476883	1
3	2059	210.054222476883	1
3	2120	216.054222476883	1
3	2120	216.054222476883	1
3	2183	222.054222476883	1
3	2183	222.054222476883	1
3	2245	228.054222476883	1
3	2245	228.054222476883	1
3	2310	234.054222476883	1
3	2310	234.054222476883	1
3	2377	240.054222476883	1
3	2377	240.054222476883	1
3	2439	246.054222476883	1
3	2439	246.054222476883	1
3	2501	252.054222476883	1
3	2501	252.054222476883	1
3	2563	258.054222476883	1
3	2563	258.054222476883	1
3	2628	264.054222476883	1
3	2628	264.054222476883	1
3	2695	270.054222476883	1
3	2695	270.054222476883	1
3	2756	276.054222476883	1
3	2756	276.054222476883	1
3	2819	282.054222476883	1
3	2819	282.054222476883	1
3	2881	288.054222476883	1
3	2881	288.054222476883	1
3	2944	294.054222476883	1
3	2944	294.054222476883	1
3	3007	300.054222476883	1
3	3007	300.054222476883	1
3	3075	306.054222476883	1
3	3075	306.054222476883	1
3	3134	312.054222476883	1
3	3134	312.054222476883	1
3	3201	318.054222476883	1
3	3201	318.054222476883	1
3	3264	324.054222476883	1
3	3264	324.054222476883	1
3	3325	330.054222476883	1
3	3325	330.054222476883	1
3	3390	336.054222476883	1
3	3390	336.054222476883	1
3	3440	341	1
3	3440	341	-1
3	3532	350	-1
3	3532	350	0
3	3552	354.056005728095	0
3	3552	354.056005728095	0
3	3600	360.056005728095	0
3	3600	360.056005728095	1
3	3656	366.056005728095	1
3	3656	366.056005728095	1
3	3710	372.056005728095	1
3	3710	372.056005728095	1
3	3768	378.056005728095	1
3	3768	378.056005728095	1
3	3822	384.056005728095	1
3	3822	384.056005728095	1
3	3886	390.056005728095	1
3	3886	390.056005728095	1
3	3951	396.056005728095	1
3	3951	396.056005728095	1
3	4005	402.056005728095	1
3	4005	402.056005728095	1
3	4070	408.056005728095	1
3	4070	408.056005728095	1
3	4134	414.056005728095	1
3	4134	414.056005728095	1
3	4198	420.056005728095	1
3	4198	420.056005728095	1
3	4263	426.056005728095	1
3	4263	426.056005728095	1
3	4322	432.056005728095	1
3	4322	432.056005728095	1
3	4386	438.056005728095	1
3	4386	438.056005728095	1
3	4452	444.056005728095	1
3	4452	444.056005728095	1
3	4513	450.056005728095	1
3	4513	450.056005728095	1
3	4579	456.056005728095	1
3	4579	456.056005728095	1
3	4641	462.056005728095	1
3	4641	462.056005728095	1
3	4701	468.056005728095	1
3	4701	468.056005728095	1
3	4767	474.056005728095	1
3	4767	474.056005728095	1
3	4825	480.056005728095	1
3	4825	480.056005728095	1
3	4879	486.056005728095	1
3	4879	486.056005728095	1
3	4941	492.056005728095	1
3	4941	492.056005728095	1
3	5007	498.056005728095	1
3	5007	498.056005728095	1
3	5068	504.056005728095	1
3	5068	504.056005728095	1
3	5132	510.056005728095	1
3	5132	510.056005728095	1
3	5196	516.056005728095	1
3	5196	516.056005728095	1
3	5259	522.056005728095	1
3	5259	522.056005728095	1
3	5323	528.056005728095	1
3	5323	528.056005728095	1
3	5387	534.056005728095	1
3	5387	534.056005728095	1
3	5450	540.056005728095	1
3	5450	540.056005728095	1
3	5510	546.056005728095	1
3	5510	546.056005728095	1
3	5578	552.056005728095	1
3	5578	552.056005728095	1
3	5641	558.056005728095	1
3	5641	558.056005728095	1
3	5704	564.056005728095	1
3	5704	564.056005728095	1
3	5767	570.056005728095	1
3	5767	570.056005728095	1
3	5828	576.056005728095	1
3	5828	576.056005728095	1
3	5896	582.056005728095	1
3	5896	582.056005728095	1
3	5956	588.056005728095	1
3	5956	588.056005728095	1
3	6022	594.056005728095	1
3	6022	594.056005728095	1
3	6086	600.056005728095	1
3	6086	600.056005728095	1
3	6143	606.056005728095	1
3	6143	606.056005728095	1
3	6211	612.056005728095	1
3	6211	612.056005728095	1
3	6277	618.056005728095	1
3	6277	618.056005728095	1
3	6336	624.056005728095	1
3	6336	624.056005728095	1
3	6401	630.056005728095	1
3	6401	630.056005728095	1
3	6469	636.056005728095	1
3	6469	636.056005728095	1
3	6527	642.056005728095	1
3	6527	642.056005728095	1
3	6585	648.056005728095	1
3	6585	648.056005728095	1
3	6640	654.056005728095	1
3	6640	654.056005728095	1
3	6695	660.056005728095	1
3	6695	660.056005728095	1
3	6753	666.056005728095	1
3	6753	666.056005728095	1
3	6810	672.056005728095	1
3	6810	672.056005728095	1
3	6861	678.056005728095	1
3	6861	678.056005728095	1
3	6914	684.056005728095	1
3	6914	684.056005728095	1
3	6972	690.056005728095	1
3	6972	690.056005728095	1
3	7030	696.056005728095	1
3	7030	696.056005728095	1
3	7081	702.056005728095	1
3	7081	702.056005728095	1
3	7136	708.056005728095	1
3	7136	708.056005728095	1
3	7197	714.056005728095	1
3	7197	714.056005728095	1
3	7260	720.056005728095	1
3	7260	720.056005728095	1
3	7328	726.056005728095	1
3	7328	726.056005728095	1
3	7391	732.056005728095	1
3	7391	732.056005728095	1
3	7453	738.056005728095	1
3	7453	738.056005728095	1
3	7515	744.056005728095	1
3	7515	744.056005728095	1
3	7578	750.056005728095	1
3	7578	750.056005728095	1
3	7647	756.056005728095	1
3	7647	756.056005728095	1
3	7703	762.056005728095	1
3	7703	762.056005728095	1
3	7769	768.056005728095	1
3	7769	768.056005728095	1
3	7836	774.056005728095	1
3	7836	774.056005728095	1
3	7897	780.056005728095	1
3	7897	780.056005728095	1
3	7962	786.056005728095	1
3	7962	786.056005728095	1
3	8024	792.056005728095	1
3	8024	792.056005728095	1
3	8084	798.056005728095	1
3	8084	798.056005728095	1
3	8151	804.056005728095	1
3	8151	804.056005728095	1
3	8219	810.056005728095	1
3	8219	810.056005728095	1
3	8280	816.056005728095	1
3	8280	816.056005728095	1
3	8339	822.056005728095	1
3	8339	822.056005728095	1
3	8405	828.056005728095	1
3	8405	828.056005728095	1
3	8469	834.056005728095	1
3	8469	834.056005728095	1
3	8535	840.056005728095	1
3	8535	840.056005728095	1
3	8590	846.056005728095	1
3	8590	846.056005728095	1
3	8643	852.056005728095	1
3	8643	852.056005728095	1
3	8696	858.056005728095	1
3	8696	858.056005728095	1
3	8751	864.056005728095	1
3	8751	864.056005728095	1
3	8806	870.056005728095	1
3	8806	870.056005728095	1
3	8870	876.056005728095	1
3	8870	876.056005728095	1
3	8932	882.056005728095	1
3	8932	882.056005728095	1
3	8997	888.056005728095	1
3	8997	888.056005728095	1
3	9060	894.056005728095	1
3	9060	894.056005728095	1
3	9121	900.056005728095	1
3	9121	900.056005728095	1
3	9188	906.056005728095	1
3	9188	906.056005728095	1
3	9253	912.056005728095	1
3	9253	912.056005728095	1
3	9313	918.056005728095	1
3	9313	918.056005728095	1
3	9357	920	1
3	9357	920	-1
3	9476	935	-1
3	9476	935	0
3	9489	936.056005728095	0
3	9489	936.056005728095	0
3	9545	942.056005728095	0
3	9545	942.056005728095	1
3	9611	948.056005728095	1
3	9611	948.056005728095	1
3	9670	954.056005728095	1
3	9670	954.056005728095	1
3	9736	960.056005728095	1
3	9736	960.056005728095	1
3	9801	966.056005728095	1
3	9801	966.056005728095	1
3	9862	972.056005728095	1
3	9862	972.056005728095	1
3	9924	978.056005728095	1
3	9924	978.056005728095	1
3	9992	984.056005728095	1
3	9992	984.056005728095	1
3	10055	990.056005728095	1
3	10055	990.056005728095	1
3	10118	996.056005728095	1
3	10118	996.056005728095	1
3	10181	1002.056005728095	1
3	10181	1002.056005728095	1
3	10241	1008.056005728095	1
3	10241	1008.056005728095	1
3	10307	1014.056005728095	1
3	10307	1014.056005728095	1
3	10372	1020.056005728095	1
3	10372	1020.056005728095	1
3	10437	1026.056005728095	1
3	10437	1026.056005728095	1
3	10495	1032.056005728095	1
3	10495	1032.056005728095	1
3	10556	1038.056005728095	1
3	10556	1038.056005728095	1
3	10625	1044.056005728095	1
3	10625	1044.056005728095	1
3	10690	1050.056005728095	1
3	10690	1050.056005728095	1
3	10752	1056.056005728095	1
3	10752	1056.056005728095	1
3	10814	1062.056005728095	1
3	10814	1062.056005728095	1
3	10877	1068.056005728095	1
3	10877	1068.056005728095	1
3	10940	1074.056005728095	1
3	10940	1074.056005728095	1
3	11006	1080.056005728095	1
3	11006	1080.056005728095	1
3	11057	1085	1
3	11057	1085	-1
3	11103	1089	-1
3	11103	1089	0
3	11119	1092.056005728095	0
3	11119	1092.056005728095	0
3	11178	1098.056005728095	0
3	11178	1098.056005728095	1
3	11243	1104.056005728095	1
3	11243	1104.056005728095	1
3	11302	1110.056005728095	1
3	11302	1110.056005728095	1
3	11366	1116.056005728095	1
3	11366	1116.056005728095	1
3	11431	1122.056005728095	1
3	11431	1122.056005728095	1
3	11493	1128.056005728095	1
3	11493	1128.056005728095	1
3	11561	1134.056005728095	1
3	11561	1134.056005728095	1
3	11622	1140.056005728095	1
3	11622	1140.056005728095	1
3	11684	1146.056005728095	1
3	11684	1146.056005728095	1
3	11746	1152.056005728095	1
3	11746	1152.056005728095	1
3	11815	1158.056005728095	1
3	11815	1158.056005728095	1
3	11879	1164.056005728095	1
3	11879	1164.056005728095	1
3	11938	1170.056005728095	1
3	11938	1170.056005728095	1
3	11999	1176.056005728095	1
3	11999	1176.056005728095	1
3	12064	1182.056005728095	1
3	12064	1182.056005728095	1
3	12130	1188.056005728095	1
3	12130	1188.056005728095	1
3	12194	1194.056005728095	1
3	12194	1194.056005728095	1
3	12256	1200.056005728095	1
3	12256	1200.056005728095	1
3	12320	1206.056005728095	1
3	12320	1206.056005728095	1
3	12379	1212.056005728095	1
3	12379	1212.056005728095	1
3	12448	1218.056005728095	1
3	12448	1218.056005728095	1
3	12512	1224.056005728095	1
3	12512	1224.056005728095	1
3	12571	1230.056005728095	1
3	12571	1230.056005728095	1
3	12638	1236.056005728095	1
3	12638	1236.056005728095	1
3	12701	1242.056005728095	1
3	12701	1242.056005728095	1
3	12755	1248.056005728095	1
3	12755	1248.056005728095	1
3	12819	1254.056005728095	1
3	12819	1254.056005728095	1
3	12885	1260.056005728095	1
3	12885	1260.056005728095	1
3	12946	1266.056005728095	1
3	12946	1266.056005728095	1
3	13013	1272.056005728095	1
3	13013	1272.056005728095	1
3	13076	1278.056005728095	1
3	13076	1278.056005728095	1
3	13134	1284.056005728095	1
3	13134	1284.056005728095	1
3	13200	1290.056005728095	1
3	13200	1290.056005728095	1
3	13267	1296.056005728095	1
3	13267	1296.056005728095	1
3	13332	1302.056005728095	1
3	13332	1302.056005728095	1
3	13391	1308.056005728095	1
3	13391	1308.056005728095	1
3	13457	1314.056005728095	1
3	13457	1314.056005728095	1
3	13518	1320.056005728095	1
3	13518	1320.056005728095	1
3	13582	1326.056005728095	1
3	13582	1326.056005728095	1
3	13644	1332.056005728095	1
3	13644	1332.056005728095	1
3	13709	1338.056005728095	1
3	13709	1338.056005728095	1
3	13773	1344.056005728095	1
3	13773	1344.056005728095	1
3	13836	1350.056005728095	1
3	13836	1350.056005728095	1
3	13900	1356.056005728095	1
3	13900	1356.056005728095	1
3	13962	1362.056005728095	1
3	13962	1362.056005728095	1
3	14024	1368.056005728095	1
3	14024	1368.056005728095	1
3	14091	1374.056005728095	1
3	14091	1374.056005728095	1
3	14156	1380.056005728095	1
3	14156	1380.056005728095	1
3	14215	1386.056005728095	1
3	14215	1386.056005728095	1
3	14280	1392.056005728095	1
3	14280	1392.056005728095	1
3	14345	1398.056005728095	1
3	14345	1398.056005728095	1
3	14406	1404.056005728095	1
3	14406	1404.056005728095	1
3	14472	1410.056005728095	1
3	14472	1410.056005728095	1
3	14540	1416.056005728095	1
3	14540	1416.056005728095	1
3	14591	1422.056005728095	1
3	14591	1422.056005728095	1
3	14654	1428.056005728095	1
3	14654	1428.056005728095	1
3	14721	1434.056005728095	1
3	14721	1434.056005728095	1
3	14779	1440.056005728095	1
3	14779	1440.056005728095	1
3	14847	1446.056005728095	1
3	14847	1446.056005728095	1
3	14913	1452.056005728095	1
3	14913	1452.056005728095	1
3	14973	1458.056005728095	1
3	14973	1458.056005728095	1
3	15036	1464.056005728095	1
3	15036	1464.056005728095	1
3	15097	1470.056005728095	1
3	15097	1470.056005728095	1
3	15165	1476.056005728095	1
3	15165	1476.056005728095	1
4	140	18	1
4	140	18	1
4	202	24	1
4	202	24	1
4	266	30	1
4	266	30	1
4	330	36	1
4	330	36	1
4	384	42	1
4	384	42	1
4	441	48	1
4	441	48	1
4	493	54	1
4	493	54	1
4	549	60	1
4	549	60	1
4	610	66	1
4	610	66	1
4	661	72	1
4	661	72	1
4	723	78	1
4	723	78	1
4	785	84	1
4	785	84	1
4	850	90	1
4	850	90	1
4	919	96	1
4	919	96	1
4	982	102	1
4	982	102	1
4	1040	108	1
4	1040	108	1
4	1103	114	1
4	1103	114	1
4	1168	120	1
4	1168	120	1
4	1234	126	1
4	1234	126	1
4	1300	132	1
4	1300	132	1
4	1358	138	1
4	1358	138	1
4	1418	144	1
4	1418	144	1
4	1486	150	1
4	1486	150	1
4	1548	156	1
4	1548	156	1
4	1605	162	1
4	1605	162	1
4	1660	168	1
4	1660	168	1
4	1708	174	1
4	1708	174	1
4	1760	180	1
4	1760	180	1
4	1819	186	1
4	1819	186	1
4	1872	192	1
4	1872	192	1
4	1925	198	1
4	1925	198	1
4	1984	204	1
4	1984	204	1
4	2046	210	1
4	2046	210	1
4	2106	216	1
4	2106	216	1
4	2172	222	1
4	2172	222	1
4	2234	228	1
4	2234	228	1
4	2299	234	1
4	2299	234	1
4	2364	240	1
4	2364	240	1
4	2425	246	1
4	2425	246	1
4	2490	252	1
4	2490	252	1
4	2552	258	1
4	2552	258	1
4	2617	264	1
4	2617	264	1
4	2682	270	1
4	2682	270	1
4	2742	276	1
4	2742	276	1
4	2808	282	1
4	2808	282	1
4	2870	288	1
4	2870	288	1
4	2932	294	1
4	2932	294	1
4	2994	300	1
4	2994	300	1
4	3061	306	1
4	3061	306	1
4	3123	312	1
4	3123	312	1
4	3189	318	1
4	3189	318	1
4	3253	324	1
4	3253	324	1
4	3311	330	1
4	3311	330	1
4	3376	336	1
4	3376	336	1
4	3444	342	1
4	3444	342	1
4	3501	348	1
4	3501	348	1
4	3544	354	1
4	3544	354	1
4	3590	360	1
4	3590	360	1
4	3646	366	1
4	3646	366	1
4	3702	372	1
4	3702	372	1
4	3758	378	1
4	3758	378	1
4	3809	384	1
4	3809	384	1
4	3871	390	1
4	3871	390	1
4	3938	396	1
4	3938	396	1
4	3992	402	1
4	3992	402	1
4	4056	408	1
4	4056	408	1
4	4120	414	1
4	4120	414	1
4	4183	420	1
4	4183	420	1
4	4249	426	1
4	4249	426	1
4	4309	432	1
4	4309	432	1
4	4372	438	1
4	4372	438	1
4	4438	444	1
4	4438	444	1
4	4498	450	1
4	4498	450	1
4	4565	456	1
4	4565	456	1
4	4627	462	1
4	4627	462	1
4	4687	468	1
4	4687	468	1
4	4745	470	1
4	4745	470	-1
4	4815	480	-1
4	4815	480	0
4	4824	480.054479687433	0
4	4824	480.054479687433	0
4	4877	486.054479687433	0
4	4877	486.054479687433	1
4	4939	492.054479687433	1
4	4939	492.054479687433	1
4	5005	498.054479687433	1
4	5005	498.054479687433	1
4	5066	504.054479687433	1
4	5066	504.054479687433	1
4	5130	510.054479687433	1
4	5130	510.054479687433	1
4	5194	516.054479687433	1
4	5194	516.054479687433	1
4	5257	522.054479687433	1
4	5257	522.054479687433	1
4	5321	528.054479687433	1
4	5321	528.054479687433	1
4	5385	534.054479687433	1
4	5385	534.054479687433	1
4	5448	540.054479687433	1
4	5448	540.054479687433	1
4	5508	546.054479687433	1
4	5508	546.054479687433	1
4	5576	552.054479687433	1
4	5576	552.054479687433	1
4	5639	558.054479687433	1
4	5639	558.054479687433	1
4	5702	564.054479687433	1
4	5702	564.054479687433	1
4	5765	570.054479687433	1
4	5765	570.054479687433	1
4	5826	576.054479687433	1
4	5826	576.054479687433	1
4	5894	582.054479687433	1
4	5894	582.054479687433	1
4	5954	588.054479687433	1
4	5954	588.054479687433	1
4	6020	594.054479687433	1
4	6020	594.054479687433	1
4	6084	600.054479687433	1
4	6084	600.054479687433	1
4	6141	606.054479687433	1
4	6141	606.054479687433	1
4	6209	612.054479687433	1
4	6209	612.054479687433	1
4	6275	618.054479687433	1
4	6275	618.054479687433	1
4	6334	624.054479687433	1
4	6334	624.054479687433	1
4	6399	630.054479687433	1
4	6399	630.054479687433	1
4	6467	636.054479687433	1
4	6467	636.054479687433	1
4	6511	640	1
4	6511	640	-1
4	7060	699	-1
4	7060	699	0
4	7080	702.054479687433	0
4	7080	702.054479687433	0
4	7134	708.054479687433	0
4	7134	708.054479687433	1
4	7195	714.054479687433	1
4	7195	714.054479687433	1
4	7258	720.054479687433	1
4	7258	720.054479687433	1
4	7326	726.054479687433	1
4	7326	726.054479687433	1
4	7389	732.054479687433	1
4	7389	732.054479687433	1
4	7451	738.054479687433	1
4	7451	738.054479687433	1
4	7513	744.054479687433	1
4	7513	744.054479687433	1
4	7576	750.054479687433	1
4	7576	750.054479687433	1
4	7645	756.054479687433	1
4	7645	756.054479687433	1
4	7701	762.054479687433	1
4	7701	762.054479687433	1
4	7767	768.054479687433	1
4	7767	768.054479687433	1
4	7834	774.054479687433	1
4	7834	774.054479687433	1
4	7895	780.054479687433	1
4	7895	780.054479687433	1
4	7960	786.054479687433	1
4	7960	786.054479687433	1
4	8022	792.054479687433	1
4	8022	792.054479687433	1
4	8082	798.054479687433	1
4	8082	798.054479687433	1
4	8149	804.054479687433	1
4	8149	804.054479687433	1
4	8217	810.054479687433	1
4	8217	810.054479687433	1
4	8278	816.054479687433	1
4	8278	816.054479687433	1
4	8337	822.054479687433	1
4	8337	822.054479687433	1
4	8403	828.054479687433	1
4	8403	828.054479687433	1
4	8467	834.054479687433	1
4	8467	834.054479687433	1
4	8533	840.054479687433	1
4	8533	840.054479687433	1
4	8588	846.054479687433	1
4	8588	846.054479687433	1
4	8641	852.054479687433	1
4	8641	852.054479687433	1
4	8694	858.054479687433	1
4	8694	858.054479687433	1
4	8749	864.054479687433	1
4	8749	864.054479687433	1
4	8804	870.054479687433	1
4	8804	870.054479687433	1
4	8868	876.054479687433	1
4	8868	876.054479687433	1
4	8930	882.054479687433	1
4	8930	882.054479687433	1
4	8995	888.054479687433	1
4	8995	888.054479687433	1
4	9058	894.054479687433	1
4	9058	894.054479687433	1
4	9119	900.054479687433	1
4	9119	900.054479687433	1
4	9186	906.054479687433	1
4	9186	906.054479687433	1
4	9251	912.054479687433	1
4	9251	912.054479687433	1
4	9311	918.054479687433	1
4	9311	918.054479687433	1
4	9378	924.054479687433	1
4	9378	924.054479687433	1
4	9435	930.054479687433	1
4	9435	930.054479687433	1
4	9487	936.054479687433	1
4	9487	936.054479687433	1
4	9543	942.054479687433	1
4	9543	942.054479687433	1
4	9609	948.054479687433	1
4	9609	948.054479687433	1
4	9668	954.054479687433	1
4	9668	954.054479687433	1
4	9734	960.054479687433	1
4	9734	960.054479687433	1
4	9799	966.054479687433	1
4	9799	966.054479687433	1
4	9860	972.054479687433	1
4	9860	972.054479687433	1
4	9922	978.054479687433	1
4	9922	978.054479687433	1
4	9990	984.054479687433	1
4	9990	984.054479687433	1
4	10053	990.054479687433	1
4	10053	990.054479687433	1
4	10116	996.054479687433	1
4	10116	996.054479687433	1
4	10179	1002.054479687433	1
4	10179	1002.054479687433	1
4	10239	1008.054479687433	1
4	10239	1008.054479687433	1
4	10305	1014.054479687433	1
4	10305	1014.054479687433	1
4	10370	1020.054479687433	1
4	10370	1020.054479687433	1
4	10435	1026.054479687433	1
4	10435	1026.054479687433	1
4	10493	1032.054479687433	1
4	10493	1032.054479687433	1
4	10554	1038.054479687433	1
4	10554	1038.054479687433	1
4	10623	1044.054479687433	1
4	10623	1044.054479687433	1
4	10688	1050.054479687433	1
4	10688	1050.054479687433	1
4	10750	1056.054479687433	1
4	10750	1056.054479687433	1
4	10812	1062.054479687433	1
4	10812	1062.054479687433	1
4	10875	1068.054479687433	1
4	10875	1068.054479687433	1
4	10938	1074.054479687433	1
4	10938	1074.054479687433	1
4	11004	1080.054479687433	1
4	11004	1080.054479687433	1
4	11071	1086.054479687433	1
4	11071	1086.054479687433	1
4	11117	1092.054479687433	1
4	11117	1092.054479687433	1
4	11176	1098.054479687433	1
4	11176	1098.054479687433	1
4	11241	1104.054479687433	1
4	11241	1104.054479687433	1
4	11300	1110.054479687433	1
4	11300	1110.054479687433	1
4	11364	1116.054479687433	1
4	11364	1116.054479687433	1
4	11429	1122.054479687433	1
4	11429	1122.054479687433	1
4	11491	1128.054479687433	1
4	11491	1128.054479687433	1
4	11559	1134.054479687433	1
4	11559	1134.054479687433	1
4	11620	1140.054479687433	1
4	11620	1140.054479687433	1
4	11682	1146.054479687433	1
4	11682	1146.054479687433	1
4	11744	1152.054479687433	1
4	11744	1152.054479687433	1
4	11813	1158.054479687433	1
4	11813	1158.054479687433	1
4	11877	1164.054479687433	1
4	11877	1164.054479687433	1
4	11936	1170.054479687433	1
4	11936	1170.054479687433	1
4	11997	1176.054479687433	1
4	11997	1176.054479687433	1
4	12062	1182.054479687433	1
4	12062	1182.054479687433	1
4	12128	1188.054479687433	1
4	12128	1188.054479687433	1
4	12192	1194.054479687433	1
4	12192	1194.054479687433	1
4	12254	1200.054479687433	1
4	12254	1200.054479687433	1
4	12318	1206.054479687433	1
4	12318	1206.054479687433	1
4	12377	1212.054479687433	1
4	12377	1212.054479687433	1
4	12446	1218.054479687433	1
4	12446	1218.054479687433	1
4	12510	1224.054479687433	1
4	12510	1224.054479687433	1
4	12569	1230.054479687433	1
4	12569	1230.054479687433	1
4	12636	1236.054479687433	1
4	12636	1236.054479687433	1
4	12700	1242.054479687433	1
4	12700	1242.054479687433	1
4	12753	1248.054479687433	1
4	12753	1248.054479687433	1
4	12817	1254.054479687433	1
4	12817	1254.054479687433	1
4	12883	1260.054479687433	1
4	12883	1260.054479687433	1
4	12944	1266.054479687433	1
4	12944	1266.054479687433	1
4	13011	1272.054479687433	1
4	13011	1272.054479687433	1
4	13074	1278.054479687433	1
4	13074	1278.054479687433	1
4	13132	1284.054479687433	1
4	13132	1284.054479687433	1
4	13198	1290.054479687433	1
4	13198	1290.054479687433	1
4	13265	1296.054479687433	1
4	13265	1296.054479687433	1
4	13330	1302.054479687433	1
4	13330	1302.054479687433	1
4	13389	1308.054479687433	1
4	13389	1308.054479687433	1
4	13455	1314.054479687433	1
4	13455	1314.054479687433	1
4	13516	1320.054479687433	1
4	13516	1320.054479687433	1
4	13580	1326.054479687433	1
4	13580	1326.054479687433	1
4	13642	1332.054479687433	1
4	13642	1332.054479687433	1
4	13707	1338.054479687433	1
4	13707	1338.054479687433	1
4	13771	1344.054479687433	1
4	13771	1344.054479687433	1
4	13834	1350.054479687433	1
4	13834	1350.054479687433	1
4	13898	1356.054479687433	1
4	13898	1356.054479687433	1
4	13960	1362.054479687433	1
4	13960	1362.054479687433	1
4	14022	1368.054479687433	1
4	14022	1368.054479687433	1
4	14089	1374.054479687433	1
4	14089	1374.054479687433	1
4	14154	1380.054479687433	1
4	14154	1380.054479687433	1
4	14213	1386.054479687433	1
4	14213	1386.054479687433	1
4	14278	1392.054479687433	1
4	14278	1392.054479687433	1
4	14343	1398.054479687433	1
4	14343	1398.054479687433	1
4	14404	1404.054479687433	1
4	14404	1404.054479687433	1
4	14470	1410.054479687433	1
4	14470	1410.054479687433	1
4	14538	1416.054479687433	1
4	14538	1416.054479687433	1
4	14589	1422.054479687433	1
4	14589	1422.054479687433	1
4	14652	1428.054479687433	1
4	14652	1428.054479687433	1
4	14719	1434.054479687433	1
4	14719	1434.054479687433	1
4	14777	1440.054479687433	1
4	14777	1440.054479687433	1
4	14845	1446.054479687433	1
4	14845	1446.054479687433	1
4	14911	1452.054479687433	1
4	14911	1452.054479687433	1
4	14971	1458.054479687433	1
4	14971	1458.054479687433	1
4	15034	1464.054479687433	1
4	15034	1464.054479687433	1
4	15095	1470.054479687433	1
4	15095	1470.054479687433	1
4	15163	1476.054479687433	1
4	15163	1476.054479687433	1
5	98	12.069648130292	17
5	100	12.071945594331	18
5	108	12.116605946574	19
5	112	12.120997778313	20
5	129	15.197375814309	21
5	141	18.001783251212	22
5	142	18.003014709667	23
5	143	18.017723117448	24
5	146	18.022585332456	25
5	160	18.069648130292	26
5	162	18.071945594331	27
5	170	18.116605946574	28
5	174	18.120997778313	29
5	183	18.643927274936	30
5	203	24.001783251212	31
5	204	24.003014709667	32
5	205	24.017723117448	33
5	208	24.022585332456	34
5	222	24.069648130292	35
5	224	24.071945594331	36
5	232	24.116605946574	37
5	236	24.120997778313	38
5	256	27.832314025858	39
5	272	30.001783251212	40
5	273	30.003014709667	41
5	274	30.017723117448	42
5	277	30.022585332456	43
5	291	30.069648130292	44
5	293	30.071945594331	45
5	301	30.116605946574	46
5	305	30.120997778313	47
5	332	36.001783251212	48
5	333	36.003014709667	49
5	336	36.022585332456	50
5	348	36.069648130292	51
5	354	36.116605946574	52
5	358	36.120997778313	53
5	386	42.001783251212	54
5	387	42.003014709667	55
5	390	42.022585332456	56
5	402	42.069648130292	57
5	407	42.116605946574	58
5	411	42.120997778313	59
5	429	45.006796618599	60
5	443	48.001783251212	61
5	444	48.003014709667	62
5	447	48.022585332456	63
5	459	48.069648130292	64
5	464	48.116605946574	65
5	468	48.120997778313	66
5	487	52.327089784113	67
5	495	54.001783251212	68
5	496	54.003014709667	69
5	499	54.022585332456	70
5	512	54.069648130292	71
5	517	54.116605946574	72
5	521	54.120997778313	73
5	527	54.943270220029	74
5	545	59.911507020744	75
5	555	60.001783251212	76
5	556	60.003014709667	77
5	559	60.022585332456	78
5	571	60.069648130292	79
5	576	60.116605946574	80
5	580	60.120997778313	81
5	586	61.004894889425	82
5	612	66.001783251212	83
5	613	66.003014709667	84
5	616	66.022585332456	85
5	628	66.069648130292	86
5	629	66.071945594331	87
5	635	66.116605946574	88
5	639	66.120997778313	89
5	662	72.001783251212	90
5	663	72.003014709667	91
5	666	72.022585332456	92
5	679	72.069648130292	93
5	680	72.071945594331	94
5	681	72.071945594331	95
5	689	72.116605946574	96
5	693	72.120997778313	97
5	724	78.001783251212	98
5	725	78.003014709667	99
5	728	78.022585332456	100
5	741	78.069648130292	101
5	742	78.071945594331	102
5	743	78.071945594331	103
5	752	78.116605946574	104
5	756	78.120997778313	105
5	786	84.001783251212	106
5	787	84.003014709667	107
5	790	84.022585332456	108
5	803	84.069648130292	109
5	804	84.071945594331	110
5	805	84.071945594331	111
5	813	84.116605946574	112
5	817	84.120997778313	113
5	836	85.081089835053	114
5	855	90.001783251212	115
5	856	90.003014709667	116
5	859	90.022585332456	117
5	872	90.069648130292	118
5	873	90.071945594331	119
5	874	90.071945594331	120
5	882	90.116605946574	121
5	886	90.120997778313	122
5	908	94.689164625749	123
5	921	96.001783251212	124
5	922	96.003014709667	125
5	925	96.022585332456	126
5	938	96.069648130292	127
5	939	96.071945594331	128
5	940	96.071945594331	129
5	948	96.116605946574	130
5	952	96.120997778313	131
5	983	102.001783251212	132
5	984	102.003014709667	133
5	987	102.022585332456	134
5	1000	102.069648130292	135
5	1001	102.071945594331	136
5	1002	102.071945594331	137
5	1010	102.116605946574	138
5	1014	102.120997778313	139
5	1041	108.001783251212	140
5	1042	108.003014709667	141
5	1045	108.022585332456	142
5	1058	108.069648130292	143
5	1059	108.071945594331	144
5	1060	108.071945594331	145
5	1068	108.116605946574	146
5	1072	108.120997778313	147
5	1081	108.1845415041	148
5	1104	114.001783251212	149
5	1105	114.003014709667	150
5	1108	114.022585332456	151
5	1121	114.069648130292	152
5	1122	114.071945594331	153
5	1123	114.071945594331	154
5	1131	114.116605946574	155
5	1135	114.120997778313	156
5	1173	120.001783251212	157
5	1174	120.003014709667	158
5	1177	120.022585332456	159
5	1190	120.069648130292	160
5	1191	120.071945594331	161
5	1192	120.071945594331	162
5	1200	120.116605946574	163
5	1204	120.120997778313	164
5	1220	122.964695910596	165
5	1236	126.001783251212	166
5	1237	126.003014709667	167
5	1240	126.022585332456	168
5	1253	126.069648130292	169
5	1254	126.071945594331	170
5	1255	126.071945594331	171
5	1263	126.116605946574	172
5	1267	126.120997778313	173
5	1290	130.181591664834	174
5	1292	130.427335731921	175
5	1301	132.001783251212	176
5	1302	132.003014709667	177
5	1305	132.022585332456	178
5	1318	132.069648130292	179
5	1319	132.071945594331	180
5	1320	132.071945594331	181
5	1328	132.116605946574	182
5	1332	132.120997778313	183
5	1359	138.001783251212	184
5	1360	138.003014709667	185
5	1363	138.022585332456	186
5	1376	138.069648130292	187
5	1377	138.071945594331	188
5	1378	138.071945594331	189
5	1387	138.116605946574	190
5	1391	138.120997778313	191
5	1409	139.403295832184	192
5	1419	144.001783251212	193
5	1420	144.003014709667	194
5	1423	144.022585332456	195
5	1436	144.069648130292	196
5	1437	144.071945594331	197
5	1438	144.071945594331	198
5	1447	144.116605946574	199
5	1451	144.120997778313	200
5	1491	150.001783251212	201
5	1492	150.003014709667	202
5	1494	150.022585332456	203
5	1507	150.069648130292	204
5	1508	150.071945594331	205
5	1509	150.071945594331	206
5	1517	150.116605946574	207
5	1519	150.120997778313	208
5	1551	156.001783251212	209
5	1552	156.003014709667	210
5	1563	156.069648130292	211
5	1564	156.071945594331	212
5	1584	156.469728538766	213
5	1594	159.276243035044	214
5	1607	162.001783251212	215
5	1608	162.003014709667	216
5	1619	162.069648130292	217
5	1620	162.071945594331	218
5	1662	168.001783251212	219
5	1663	168.003014709667	220
5	1673	168.071945594331	221
5	1701	173.482966190262	222
5	1711	174.001783251212	223
5	1712	174.003014709667	224
5	1716	174.024368583668	225
5	1726	174.071945594331	226
5	1727	174.073728845543	227
5	1734	174.122781029525	228
5	1765	180.001783251212	229
5	1766	180.003014709667	230
5	1770	180.024368583668	231
5	1780	180.071945594331	232
5	1781	180.073728845543	233
5	1788	180.122781029525	234
5	1803	182.494166363793	235
5	1824	186.001783251212	236
5	1825	186.003014709667	237
5	1829	186.024368583668	238
5	1839	186.071945594331	239
5	1840	186.073728845543	240
5	1847	186.122781029525	241
5	1870	191.171971469105	242
5	1875	192.001783251212	243
5	1876	192.003014709667	244
5	1880	192.024368583668	245
5	1890	192.071945594331	246
5	1891	192.073728845543	247
5	1898	192.122781029525	248
5	1910	193.223275542454	249
5	1927	198.001783251212	250
5	1928	198.003014709667	251
5	1932	198.024368583668	252
5	1942	198.071945594331	253
5	1943	198.073728845543	254
5	1949	198.118389197786	255
5	1953	198.122781029525	256
5	1978	202.350549207214	257
5	1979	202.411662293376	258
5	1986	204.001783251212	259
5	1987	204.003014709667	260
5	1991	204.024368583668	261
5	2002	204.071945594331	262
5	2004	204.073728845543	263
5	2011	204.118389197786	264
5	2012	204.118389197786	265
5	2016	204.122781029525	266
5	2050	210.001783251212	267
5	2051	210.003014709667	268
5	2055	210.024368583668	269
5	2066	210.071945594331	270
5	2068	210.073728845543	271
5	2075	210.118389197786	272
5	2076	210.118389197786	273
5	2080	210.122781029525	274
5	2097	211.600049044298	275
5	2111	216.001783251212	276
5	2112	216.003014709667	277
5	2116	216.024368583668	278
5	2127	216.071945594331	279
5	2129	216.073728845543	280
5	2136	216.118389197786	281
5	2137	216.118389197786	282
5	2141	216.122781029525	283
5	2159	217.205386785041	284
5	2167	220.78843579522	285
5	2174	222.001783251212	286
5	2175	222.003014709667	287
5	2179	222.024368583668	288
5	2190	222.071945594331	289
5	2192	222.073728845543	290
5	2199	222.118389197786	291
5	2200	222.118389197786	292
5	2204	222.122781029525	293
5	2222	223.863321444339	294
5	2236	228.001783251212	295
5	2237	228.003014709667	296
5	2241	228.024368583668	297
5	2252	228.071945594331	298
5	2254	228.073728845543	299
5	2261	228.118389197786	300
5	2262	228.118389197786	301
5	2266	228.122781029525	302
5	2283	229.976822546142	303
5	2301	234.001783251212	304
5	2302	234.003014709667	305
5	2306	234.024368583668	306
5	2317	234.071945594331	307
5	2319	234.073728845543	308
5	2326	234.118389197786	309
5	2327	234.118389197786	310
5	2331	234.122781029525	311
5	2345	234.560996995665	312
5	2368	240.001783251212	313
5	2369	240.003014709667	314
5	2373	240.024368583668	315
5	2384	240.071945594331	316
5	2386	240.073728845543	317
5	2393	240.118389197786	318
5	2394	240.118389197786	319
5	2398	240.122781029525	320
5	2423	245.651923732642	321
5	2430	246.001783251212	322
5	2431	246.003014709667	323
5	2435	246.024368583668	324
5	2446	246.071945594331	325
5	2448	246.073728845543	326
5	2455	246.118389197786	327
5	2456	246.118389197786	328
5	2460	246.122781029525	329
5	2474	246.805251518382	330
5	2480	248.704505447914	331
5	2492	252.001783251212	332
5	2493	252.003014709667	333
5	2497	252.024368583668	334
5	2508	252.071945594331	335
5	2510	252.073728845543	336
5	2517	252.118389197786	337
5	2518	252.118389197786	338
5	2522	252.122781029525	339
5	2542	254.506402074731	340
5	2554	258.001783251212	341
5	2555	258.003014709667	342
5	2559	258.024368583668	343
5	2570	258.071945594331	344
5	2572	258.073728845543	345
5	2579	258.118389197786	346
5	2580	258.118389197786	347
5	2584	258.122781029525	348
5	2619	264.001783251212	349
5	2620	264.003014709667	350
5	2624	264.024368583668	351
5	2635	264.071945594331	352
5	2637	264.073728845543	353
5	2644	264.118389197786	354
5	2645	264.118389197786	355
5	2649	264.122781029525	356
5	2686	270.001783251212	357
5	2687	270.003014709667	358
5	2691	270.024368583668	359
5	2702	270.071945594331	360
5	2704	270.073728845543	361
5	2711	270.118389197786	362
5	2712	270.118389197786	363
5	2716	270.122781029525	364
5	2736	274.519506749594	365
5	2747	276.001783251212	366
5	2748	276.003014709667	367
5	2752	276.024368583668	368
5	2763	276.071945594331	369
5	2765	276.073728845543	370
5	2772	276.118389197786	371
5	2773	276.118389197786	372
5	2777	276.122781029525	373
5	2798	278.513926252204	374
5	2806	281.736402503832	375
5	2810	282.001783251212	376
5	2811	282.003014709667	377
5	2815	282.024368583668	378
5	2826	282.071945594331	379
5	2828	282.073728845543	380
5	2835	282.118389197786	381
5	2836	282.118389197786	382
5	2840	282.122781029525	383
5	2861	285.107143051674	384
5	2872	288.001783251212	385
5	2873	288.003014709667	386
5	2877	288.024368583668	387
5	2888	288.071945594331	388
5	2890	288.073728845543	389
5	2897	288.118389197786	390
5	2898	288.118389197786	391
5	2902	288.122781029525	392
5	2934	294.001783251212	393
5	2935	294.003014709667	394
5	2939	294.024368583668	395
5	2952	294.071945594331	396
5	2954	294.073728845543	397
5	2961	294.118389197786	398
5	2962	294.118389197786	399
5	2966	294.122781029525	400
5	2998	300.001783251212	401
5	2999	300.003014709667	402
5	3003	300.024368583668	403
5	3014	300.071945594331	404
5	3016	300.073728845543	405
5	3023	300.118389197786	406
5	3024	300.118389197786	407
5	3028	300.122781029525	408
5	3042	300.713305412825	409
5	3066	306.001783251212	410
5	3067	306.003014709667	411
5	3071	306.024368583668	412
5	3082	306.071945594331	413
5	3084	306.073728845543	414
5	3091	306.118389197786	415
5	3092	306.118389197786	416
5	3096	306.122781029525	417
5	3125	312.001783251212	418
5	3126	312.003014709667	419
5	3130	312.024368583668	420
5	3141	312.071945594331	421
5	3143	312.073728845543	422
5	3150	312.118389197786	423
5	3151	312.118389197786	424
5	3155	312.122781029525	425
5	3191	318.001783251212	426
5	3192	318.003014709667	427
5	3196	318.024368583668	428
5	3208	318.071945594331	429
5	3210	318.073728845543	430
5	3217	318.118389197786	431
5	3218	318.118389197786	432
5	3222	318.122781029525	433
5	3251	323.816757081872	434
5	3255	324.001783251212	435
5	3256	324.003014709667	436
5	3260	324.024368583668	437
5	3271	324.071945594331	438
5	3273	324.073728845543	439
5	3280	324.118389197786	440
5	3281	324.118389197786	441
5	3285	324.122781029525	442
5	3315	330.001783251212	443
5	3316	330.003014709667	444
5	3317	330.016853154097	445
5	3321	330.024368583668	446
5	3332	330.071945594331	447
5	3334	330.073728845543	448
5	3341	330.118389197786	449
5	3342	330.118389197786	450
5	3346	330.122781029525	451
5	3369	332.254672783498	452
5	3381	336.001783251212	453
5	3382	336.003014709667	454
5	3386	336.024368583668	455
5	3397	336.071945594331	456
5	3399	336.073728845543	457
5	3406	336.118389197786	458
5	3407	336.118389197786	459
5	3411	336.122781029525	460
5	3428	338.694658259409	461
5	3434	339.471568537736	462
5	3447	342.001783251212	463
5	3448	342.003014709667	464
5	3452	342.024368583668	465
5	3466	342.118389197786	466
5	3467	342.118389197786	467
5	3471	342.122781029525	468
5	3498	347.372463364721	469
5	3505	348.003014709667	470
5	3516	348.118389197786	471
5	3517	348.118389197786	472
5	3520	348.122781029525	473
5	3529	349.425850308128	474
5	3547	354.003014709667	475
5	3556	354.073728845543	476
5	3560	354.118389197786	477
5	3561	354.118389197786	478
5	3564	354.122781029525	479
5	3571	354.621359307268	480
5	3588	358.61423705905	481
5	3595	360.003014709667	482
5	3605	360.073728845543	483
5	3606	360.073728845543	484
5	3612	360.118389197786	485
5	3613	360.118389197786	486
5	3616	360.122781029525	487
5	3642	364.728073575345	488
5	3651	366.003014709667	489
5	3661	366.073728845543	490
5	3662	366.073728845543	491
5	3668	366.118389197786	492
5	3669	366.118389197786	493
5	3672	366.122781029525	494
5	3705	372.003014709667	495
5	3715	372.073728845543	496
5	3716	372.073728845543	497
5	3722	372.118389197786	498
5	3723	372.118389197786	499
5	3726	372.122781029525	500
5	3757	377.878662266504	501
5	3761	378.003014709667	502
5	3764	378.024368583668	503
5	3773	378.073728845543	504
5	3774	378.073728845543	505
5	3780	378.118389197786	506
5	3781	378.118389197786	507
5	3784	378.122781029525	508
5	3806	382.772943063164	509
5	3811	384.003014709667	510
5	3815	384.024368583668	511
5	3816	384.024368583668	512
5	3827	384.073728845543	513
5	3828	384.073728845543	514
5	3837	384.118389197786	515
5	3838	384.118389197786	516
5	3841	384.122781029525	517
5	3866	387.815135867934	518
5	3875	390.003014709667	519
5	3879	390.024368583668	520
5	3880	390.024368583668	521
5	3891	390.073728845543	522
5	3892	390.073728845543	523
5	3901	390.118389197786	524
5	3902	390.118389197786	525
5	3905	390.122781029525	526
5	3941	396.003014709667	527
5	3945	396.024368583668	528
5	3946	396.024368583668	529
5	3955	396.073728845543	530
5	3956	396.073728845543	531
5	3964	396.118389197786	532
5	3967	396.122781029525	533
5	3977	397.20673457164	534
5	3994	402.003014709667	535
5	3998	402.024368583668	536
5	3999	402.024368583668	537
5	4010	402.073728845543	538
5	4011	402.073728845543	539
5	4020	402.118389197786	540
5	4021	402.118389197786	541
5	4024	402.122781029525	542
5	4047	404.55617081366	543
5	4059	408.003014709667	544
5	4063	408.024368583668	545
5	4064	408.024368583668	546
5	4075	408.073728845543	547
5	4076	408.073728845543	548
5	4085	408.118389197786	549
5	4086	408.118389197786	550
5	4089	408.122781029525	551
5	4105	408.529413201711	552
5	4123	414.003014709667	553
5	4127	414.024368583668	554
5	4128	414.024368583668	555
5	4139	414.073728845543	556
5	4140	414.073728845543	557
5	4149	414.118389197786	558
5	4150	414.118389197786	559
5	4153	414.122781029525	560
5	4181	418.857421834354	561
5	4187	420.003014709667	562
5	4191	420.024368583668	563
5	4192	420.024368583668	564
5	4203	420.073728845543	565
5	4204	420.073728845543	566
5	4213	420.118389197786	567
5	4214	420.118389197786	568
5	4217	420.122781029525	569
5	4252	426.003014709667	570
5	4256	426.024368583668	571
5	4257	426.024368583668	572
5	4268	426.073728845543	573
5	4269	426.073728845543	574
[...]
24	20484	1980.078591060551	1239
24	20485	1980.086239066688	1240
24	20492	1980.111427649913	1241
24	20495	1980.127740205052	1242
24	20543	1986.078591060551	1243
24	20544	1986.086239066688	1244
24	20551	1986.111427649913	1245
24	20554	1986.127740205052	1246
24	20605	1992.078591060551	1247
24	20606	1992.086239066688	1248
24	20613	1992.111427649913	1249
24	20616	1992.127740205052	1250
24	20671	1998.078591060551	1251
24	20672	1998.086239066688	1252
24	20679	1998.111427649913	1253
24	20682	1998.127740205052	1254
24	20735	2004.078591060551	1255
24	20736	2004.086239066688	1256
24	20743	2004.111427649913	1257
24	20746	2004.127740205052	1258
24	20797	2010.078591060551	1259
24	20798	2010.086239066688	1260
24	20805	2010.111427649913	1261
24	20808	2010.127740205052	1262
24	20861	2016.078591060551	1263
24	20862	2016.086239066688	1264
24	20869	2016.111427649913	1265
24	20872	2016.127740205052	1266
24	20927	2022.078591060551	1267
24	20928	2022.086239066688	1268
24	20935	2022.111427649913	1269
24	20938	2022.127740205052	1270
24	20988	2028.078591060551	1271
24	20989	2028.086239066688	1272
24	20996	2028.111427649913	1273
24	20999	2028.127740205052	1274
24	21053	2034.078591060551	1275
24	21054	2034.086239066688	1276
24	21061	2034.111427649913	1277
24	21064	2034.127740205052	1278
24	21116	2040.078591060551	1279
24	21117	2040.086239066688	1280
24	21125	2040.111427649913	1281
24	21128	2040.127740205052	1282
24	21176	2046.078591060551	1283
24	21177	2046.086239066688	1284
24	21184	2046.111427649913	1285
24	21187	2046.127740205052	1286
24	21244	2052.078591060551	1287
24	21245	2052.086239066688	1288
24	21252	2052.111427649913	1289
24	21255	2052.127740205052	1290
24	21307	2058.078591060551	1291
24	21308	2058.086239066688	1292
24	21315	2058.111427649913	1293
24	21318	2058.127740205052	1294
24	21368	2064.078591060551	1295
24	21370	2064.086239066688	1296
24	21377	2064.111427649913	1297
24	21380	2064.127740205052	1298
24	21432	2070.078591060551	1299
24	21433	2070.086239066688	1300
24	21440	2070.111427649913	1301
24	21443	2070.127740205052	1302
24	21494	2076.078591060551	1303
24	21495	2076.086239066688	1304
24	21502	2076.111427649913	1305
24	21505	2076.127740205052	1306
24	21560	2082.078591060551	1307
24	21561	2082.086239066688	1308
24	21568	2082.111427649913	1309
24	21571	2082.127740205052	1310
24	21625	2088.078591060551	1311
24	21626	2088.086239066688	1312
24	21633	2088.111427649913	1313
24	21636	2088.127740205052	1314
24	21686	2094.078591060551	1315
24	21687	2094.086239066688	1316
24	21694	2094.111427649913	1317
24	21697	2094.127740205052	1318
24	21749	2100.078591060551	1319
24	21750	2100.086239066688	1320
24	21757	2100.111427649913	1321
24	21761	2100.127740205052	1322
24	21812	2106.078591060551	1323
24	21813	2106.086239066688	1324
24	21820	2106.111427649913	1325
24	21823	2106.127740205052	1326
24	21878	2112.078591060551	1327
24	21879	2112.086239066688	1328
24	21886	2112.111427649913	1329
24	21889	2112.127740205052	1330
24	21942	2118.078591060551	1331
24	21943	2118.086239066688	1332
24	21950	2118.111427649913	1333
24	21953	2118.127740205052	1334
24	22004	2124.078591060551	1335
24	22005	2124.086239066688	1336
24	22012	2124.111427649913	1337
24	22015	2124.127740205052	1338
24	22068	2130.078591060551	1339
24	22069	2130.086239066688	1340
24	22076	2130.111427649913	1341
24	22079	2130.127740205052	1342
24	22130	2136.078591060551	1343
24	22131	2136.086239066688	1344
24	22138	2136.111427649913	1345
24	22141	2136.127740205052	1346
24	22196	2142.078591060551	1347
24	22197	2142.086239066688	1348
24	22204	2142.111427649913	1349
24	22207	2142.127740205052	1350
24	22255	2148.078591060551	1351
24	22256	2148.086239066688	1352
24	22263	2148.111427649913	1353
24	22266	2148.127740205052	1354
24	22322	2154.078591060551	1355
24	22323	2154.086239066688	1356
24	22330	2154.111427649913	1357
24	22333	2154.127740205052	1358
24	22386	2160.078591060551	1359
24	22387	2160.086239066688	1360
24	22394	2160.111427649913	1361
24	22397	2160.127740205052	1362
24	22448	2166.078591060551	1363
24	22449	2166.086239066688	1364
24	22456	2166.111427649913	1365
24	22459	2166.127740205052	1366
24	22513	2172.078591060551	1367
24	22514	2172.086239066688	1368
24	22522	2172.111427649913	1369
24	22525	2172.127740205052	1370
24	22572	2178.078591060551	1371
24	22573	2178.086239066688	1372
24	22580	2178.111427649913	1373
24	22584	2178.127740205052	1374
24	22965	2220.078591060551	1375
24	22966	2220.086239066688	1376
24	22971	2220.111427649913	1377
24	22974	2220.127740205052	1378
24	23025	2226.078591060551	1379
24	23026	2226.086239066688	1380
24	23032	2226.111427649913	1381
24	23036	2226.127740205052	1382
24	23086	2232.078591060551	1383
24	23087	2232.086239066688	1384
24	23093	2232.111427649913	1385
24	23097	2232.127740205052	1386
24	23148	2238.078591060551	1387
24	23149	2238.086239066688	1388
24	23155	2238.111427649913	1389
24	23159	2238.127740205052	1390
24	23211	2244.078591060551	1391
24	23212	2244.086239066688	1392
24	23218	2244.111427649913	1393
24	23222	2244.127740205052	1394
24	23275	2250.078591060551	1395
24	23276	2250.086239066688	1396
24	23282	2250.111427649913	1397
24	23286	2250.127740205052	1398
24	23337	2256.078591060551	1399
24	23338	2256.086239066688	1400
24	23344	2256.111427649913	1401
24	23348	2256.127740205052	1402
24	23404	2262.078591060551	1403
24	23405	2262.086239066688	1404
24	23411	2262.111427649913	1405
24	23415	2262.127740205052	1406
24	23466	2268.078591060551	1407
24	23467	2268.086239066688	1408
24	23473	2268.111427649913	1409
24	23477	2268.127740205052	1410
24	23532	2274.078591060551	1411
24	23533	2274.086239066688	1412
24	23539	2274.111427649913	1413
24	23543	2274.127740205052	1414
24	23592	2280.078591060551	1415
24	23593	2280.086239066688	1416
24	23599	2280.111427649913	1417
24	23604	2280.127740205052	1418
24	23655	2286.078591060551	1419
24	23656	2286.086239066688	1420
24	23662	2286.111427649913	1421
24	23666	2286.127740205052	1422
24	23722	2292.078591060551	1423
24	23723	2292.086239066688	1424
24	23729	2292.111427649913	1425
24	23733	2292.127740205052	1426
24	23784	2298.078591060551	1427
24	23785	2298.086239066688	1428
24	23791	2298.111427649913	1429
24	23795	2298.127740205052	1430
24	23847	2304.078591060551	1431
24	23848	2304.086239066688	1432
24	23855	2304.127740205052	1433
24	23903	2310.078591060551	1434
24	23904	2310.086239066688	1435
24	23911	2310.127740205052	1436
24	23957	2316.078591060551	1437
24	23958	2316.086239066688	1438
24	23965	2316.127740205052	1439
24	24011	2322.078591060551	1440
24	24012	2322.086239066688	1441
24	24019	2322.127740205052	1442
24	24070	2328.078591060551	1443
24	24071	2328.086239066688	1444
24	24077	2328.111427649913	1445
24	24081	2328.127740205052	1446
24	24132	2334.078591060551	1447
24	24133	2334.086239066688	1448
24	24140	2334.111427649913	1449
24	24144	2334.127740205052	1450
24	24195	2340.078591060551	1451
24	24196	2340.086239066688	1452
24	24203	2340.111427649913	1453
24	24207	2340.127740205052	1454
24	24262	2346.078591060551	1455
24	24263	2346.086239066688	1456
24	24269	2346.111427649913	1457
24	24273	2346.127740205052	1458
24	24323	2352.078591060551	1459
24	24324	2352.086239066688	1460
24	24330	2352.111427649913	1461
24	24334	2352.127740205052	1462
24	24385	2358.078591060551	1463
24	24386	2358.086239066688	1464
24	24392	2358.111427649913	1465
24	24396	2358.127740205052	1466
24	24448	2364.078591060551	1467
24	24449	2364.086239066688	1468
24	24456	2364.127740205052	1469
24	24506	2370.078591060551	1470
24	24507	2370.086239066688	1471
24	24514	2370.127740205052	1472
24	24561	2376.078591060551	1473
24	24562	2376.086239066688	1474
24	24569	2376.127740205052	1475
24	24622	2382.078591060551	1476
24	24623	2382.086239066688	1477
24	24629	2382.111427649913	1478
24	24633	2382.127740205052	1479
24	24681	2388.078591060551	1480
24	24682	2388.086239066688	1481
24	24688	2388.111427649913	1482
24	24692	2388.127740205052	1483
24	24740	2394.078591060551	1484
24	24741	2394.086239066688	1485
24	24747	2394.111427649913	1486
24	24751	2394.127740205052	1487
24	24811	2400.078591060551	1488
24	24812	2400.086239066688	1489
24	24818	2400.111427649913	1490
24	24822	2400.127740205052	1491
24	24873	2406.078591060551	1492
24	24874	2406.086239066688	1493
24	24880	2406.111427649913	1494
24	24884	2406.127740205052	1495
24	24937	2412.078591060551	1496
24	24938	2412.086239066688	1497
24	24944	2412.111427649913	1498
24	24948	2412.127740205052	1499
24	24999	2418.078591060551	1500
24	25000	2418.086239066688	1501
24	25006	2418.111427649913	1502
24	25010	2418.127740205052	1503
24	25058	2424.078591060551	1504
24	25059	2424.086239066688	1505
24	25065	2424.111427649913	1506
24	25069	2424.127740205052	1507
24	25129	2430.078591060551	1508
24	25130	2430.086239066688	1509
24	25136	2430.111427649913	1510
24	25140	2430.127740205052	1511
24	25191	2436.078591060551	1512
24	25192	2436.086239066688	1513
24	25198	2436.111427649913	1514
24	25202	2436.127740205052	1515
24	25252	2442.086239066688	1516
24	25257	2442.111427649913	1517
24	25261	2442.127740205052	1518
24	25353	2454.086239066688	1519
24	25357	2454.111427649913	1520
24	25360	2454.127740205052	1521
24	25402	2460.086239066688	1522
24	25407	2460.111427649913	1523
24	25411	2460.127740205052	1524
24	25459	2466.086239066688	1525
24	25464	2466.111427649913	1526
24	25468	2466.127740205052	1527
24	25511	2472.086239066688	1528
24	25516	2472.111427649913	1529
24	25520	2472.127740205052	1530
24	25568	2478.078591060551	1531
24	25569	2478.086239066688	1532
24	25574	2478.111427649913	1533
24	25577	2478.127740205052	1534
24	25625	2484.078591060551	1535
24	25626	2484.086239066688	1536
24	25632	2484.111427649913	1537
24	25637	2484.127740205052	1538
24	25685	2490.078591060551	1539
24	25692	2490.111427649913	1540
24	25696	2490.127740205052	1541
24	25743	2496.078591060551	1542
24	25748	2496.108824399144	1543
24	25750	2496.111427649913	1544
24	25755	2496.127740205052	1545
24	25807	2502.078591060551	1546
24	25812	2502.108824399144	1547
24	25814	2502.111427649913	1548
24	25819	2502.127740205052	1549
24	25869	2508.078591060551	1550
24	25874	2508.108824399144	1551
24	25876	2508.111427649913	1552
24	25882	2508.127740205052	1553
24	25934	2514.078591060551	1554
24	25939	2514.108824399144	1555
24	25941	2514.111427649913	1556
24	25946	2514.127740205052	1557
24	26003	2520.108824399144	1558
24	26005	2520.111427649913	1559
24	26010	2520.127740205052	1560
24	26054	2526.108824399144	1561
24	26056	2526.111427649913	1562
24	26062	2526.127740205052	1563
24	26107	2532.108824399144	1564
24	26109	2532.111427649913	1565
24	26114	2532.127740205052	1566
24	26165	2538.108824399144	1567
24	26167	2538.111427649913	1568
24	26172	2538.127740205052	1569
24	26222	2544.108824399144	1570
24	26226	2544.127740205052	1571
24	26271	2550.108824399144	1572
24	26275	2550.127740205052	1573
24	26318	2556.101176393007	1574
24	26319	2556.108824399144	1575
24	26324	2556.127740205052	1576
24	26376	2562.101176393007	1577
24	26377	2562.108824399144	1578
24	26382	2562.127740205052	1579
24	26385	2562.130243691367	1580
24	26437	2568.101176393007	1581
24	26438	2568.108824399144	1582
24	26443	2568.127740205052	1583
24	26446	2568.130243691367	1584
24	26505	2574.101176393007	1585
24	26506	2574.108824399144	1586
24	26511	2574.127740205052	1587
24	26514	2574.130243691367	1588
24	26567	2580.101176393007	1589
24	26568	2580.108824399144	1590
24	26573	2580.127740205052	1591
24	26576	2580.130243691367	1592
24	26629	2586.101176393007	1593
24	26630	2586.108824399144	1594
24	26635	2586.127740205052	1595
24	26638	2586.130243691367	1596
24	26695	2592.101176393007	1597
24	26696	2592.108824399144	1598
24	26701	2592.127740205052	1599
24	26704	2592.130243691367	1600
24	26756	2598.101176393007	1601
24	26757	2598.108824399144	1602
24	26762	2598.127740205052	1603
24	26765	2598.130243691367	1604
24	26823	2604.101176393007	1605
24	26824	2604.108824399144	1606
24	26829	2604.127740205052	1607
24	26832	2604.130243691367	1608
24	26883	2610.101176393007	1609
24	26884	2610.108824399144	1610
24	26889	2610.127740205052	1611
24	26892	2610.130243691367	1612
24	26945	2616.101176393007	1613
24	26946	2616.108824399144	1614
24	26951	2616.127740205052	1615
24	26954	2616.130243691367	1616
24	27013	2622.101176393007	1617
24	27014	2622.108824399144	1618
24	27019	2622.127740205052	1619
24	27022	2622.130243691367	1620
24	27075	2628.101176393007	1621
24	27076	2628.108824399144	1622
24	27081	2628.127740205052	1623
24	27084	2628.130243691367	1624
24	27137	2634.101176393007	1625
24	27138	2634.108824399144	1626
24	27143	2634.127740205052	1627
24	27146	2634.130243691367	1628
24	27198	2640.101176393007	1629
24	27202	2640.127740205052	1630
24	27204	2640.130243691367	1631
24	27246	2646.101176393007	1632
24	27250	2646.127740205052	1633
24	27253	2646.130243691367	1634
24	27308	2652.101176393007	1635
24	27313	2652.127740205052	1636
24	27316	2652.130243691367	1637
24	27317	2652.1314097316	1638
24	27376	2658.101176393007	1639
24	27381	2658.127740205052	1640
24	27384	2658.130243691367	1641
24	27385	2658.1314097316	1642
24	27434	2664.101176393007	1643
24	27440	2664.127740205052	1644
24	27443	2664.130243691367	1645
24	27444	2664.1314097316	1646
24	27496	2670.101176393007	1647
24	27501	2670.127740205052	1648
24	27504	2670.130243691367	1649
24	27505	2670.1314097316	1650
24	27562	2676.101176393007	1651
24	27567	2676.127740205052	1652
24	27570	2676.130243691367	1653
24	27571	2676.1314097316	1654
24	27626	2682.101176393007	1655
24	27631	2682.127740205052	1656
24	27634	2682.130243691367	1657
24	27635	2682.1314097316	1658
24	27691	2688.101176393007	1659
24	27696	2688.127740205052	1660
24	27699	2688.130243691367	1661
24	27700	2688.1314097316	1662
24	27754	2694.101176393007	1663
24	27759	2694.127740205052	1664
24	27762	2694.130243691367	1665
24	27763	2694.1314097316	1666
24	27817	2700.101176393007	1667
24	27822	2700.127740205052	1668
24	27825	2700.130243691367	1669
24	27826	2700.1314097316	1670
24	27877	2706.101176393007	1671
24	27882	2706.127740205052	1672
24	27885	2706.130243691367	1673
24	27886	2706.1314097316	1674
24	27944	2712.101176393007	1675
24	27949	2712.127740205052	1676
24	27952	2712.130243691367	1677
24	27953	2712.1314097316	1678
24	28007	2718.101176393007	1679
24	28012	2718.127740205052	1680
24	28015	2718.130243691367	1681
24	28016	2718.1314097316	1682
24	28069	2724.101176393007	1683
24	28074	2724.127740205052	1684
24	28077	2724.130243691367	1685
24	28078	2724.1314097316	1686
24	28135	2730.101176393007	1687
24	28140	2730.127740205052	1688
24	28143	2730.130243691367	1689
24	28144	2730.1314097316	1690
24	28198	2736.101176393007	1691
24	28203	2736.127740205052	1692
24	28206	2736.130243691367	1693
24	28207	2736.1314097316	1694
24	28259	2742.101176393007	1695
24	28264	2742.127740205052	1696
24	28267	2742.130243691367	1697
24	28268	2742.1314097316	1698
24	28325	2748.101176393007	1699
24	28330	2748.127740205052	1700
24	28333	2748.130243691367	1701
24	28334	2748.1314097316	1702
24	28387	2754.101176393007	1703
24	28392	2754.127740205052	1704
24	28395	2754.130243691367	1705
24	28396	2754.1314097316	1706
24	28453	2760.101176393007	1707
24	28458	2760.127740205052	1708
24	28461	2760.130243691367	1709
24	28462	2760.1314097316	1710
24	28515	2766.101176393007	1711
24	28520	2766.127740205052	1712
24	28523	2766.130243691367	1713
24	28524	2766.1314097316	1714
24	28577	2772.101176393007	1715
24	28582	2772.127740205052	1716
24	28585	2772.130243691367	1717
24	28586	2772.1314097316	1718
24	28643	2778.101176393007	1719
24	28648	2778.127740205052	1720
24	28651	2778.130243691367	1721
24	28652	2778.1314097316	1722
24	28703	2784.101176393007	1723
24	28709	2784.127740205052	1724
24	28712	2784.130243691367	1725
24	28713	2784.1314097316	1726
24	28768	2790.101176393007	1727
24	28773	2790.127740205052	1728
24	28776	2790.130243691367	1729
24	28777	2790.1314097316	1730
24	28834	2796.101176393007	1731
24	28839	2796.127740205052	1732
24	28842	2796.130243691367	1733
24	28843	2796.1314097316	1734
24	28893	2802.101176393007	1735
24	28898	2802.127740205052	1736
24	28901	2802.130243691367	1737
24	28902	2802.1314097316	1738
24	28961	2808.101176393007	1739
24	28966	2808.127740205052	1740
24	28969	2808.130243691367	1741
24	28970	2808.1314097316	1742
24	29023	2814.101176393007	1743
24	29028	2814.127740205052	1744
24	29031	2814.130243691367	1745
24	29032	2814.1314097316	1746
24	29083	2820.101176393007	1747
24	29088	2820.127740205052	1748
24	29091	2820.130243691367	1749
24	29092	2820.1314097316	1750
24	29146	2826.101176393007	1751
24	29151	2826.127740205052	1752
24	29154	2826.130243691367	1753
24	29155	2826.1314097316	1754
24	29215	2832.101176393007	1755
24	29220	2832.127740205052	1756
24	29223	2832.130243691367	1757
24	29224	2832.1314097316	1758
24	29279	2838.101176393007	1759
24	29284	2838.127740205052	1760
24	29287	2838.130243691367	1761
24	29288	2838.1314097316	1762
24	29341	2844.101176393007	1763
24	29346	2844.127740205052	1764
24	29349	2844.130243691367	1765
24	29350	2844.1314097316	1766
24	29404	2850.101176393007	1767
24	29409	2850.127740205052	1768
24	29412	2850.130243691367	1769
24	29413	2850.1314097316	1770
24	29464	2856.101176393007	1771
24	29469	2856.127740205052	1772
24	29472	2856.130243691367	1773
24	29473	2856.1314097316	1774
24	29531	2862.101176393007	1775
24	29536	2862.127740205052	1776
24	29539	2862.130243691367	1777
24	29540	2862.1314097316	1778
24	29597	2868.101176393007	1779
24	29602	2868.127740205052	1780
24	29605	2868.130243691367	1781
24	29606	2868.1314097316	1782
24	29659	2874.101176393007	1783
24	29664	2874.127740205052	1784
24	29667	2874.130243691367	1785
24	29668	2874.1314097316	1786
24	29719	2880.101176393007	1787
24	29724	2880.127740205052	1788
24	29727	2880.130243691367	1789
24	29728	2880.1314097316	1790
24	29782	2886.101176393007	1791
24	29787	2886.127740205052	1792
24	29790	2886.130243691367	1793
24	29791	2886.1314097316	1794
24	29849	2892.101176393007	1795
24	29854	2892.127740205052	1796
24	29857	2892.130243691367	1797
24	29858	2892.1314097316	1798
24	29912	2898.101176393007	1799
24	29917	2898.127740205052	1800
24	29920	2898.130243691367	1801
24	29921	2898.1314097316	1802
24	29977	2904.101176393007	1803
24	29982	2904.127740205052	1804
24	29985	2904.130243691367	1805
24	29986	2904.1314097316	1806
24	30037	2910.101176393007	1807
24	30042	2910.127740205052	1808
24	30045	2910.130243691367	1809
24	30046	2910.1314097316	1810
24	30103	2916.101176393007	1811
24	30108	2916.127740205052	1812
24	30111	2916.130243691367	1813
24	30112	2916.1314097316	1814
24	30166	2922.101176393007	1815
24	30171	2922.127740205052	1816
24	30174	2922.130243691367	1817
24	30175	2922.1314097316	1818
24	30230	2928.101176393007	1819
24	30235	2928.127740205052	1820
24	30238	2928.130243691367	1821
24	30239	2928.1314097316	1822
24	30292	2934.101176393007	1823
24	30297	2934.127740205052	1824
24	30300	2934.130243691367	1825
24	30301	2934.1314097316	1826
24	30352	2940.101176393007	1827
24	30357	2940.127740205052	1828
24	30360	2940.130243691367	1829
24	30361	2940.1314097316	1830
24	30418	2946.101176393007	1831
24	30423	2946.127740205052	1832
24	30426	2946.130243691367	1833
24	30427	2946.1314097316	1834
24	30487	2952.101176393007	1835
24	30492	2952.127740205052	1836
24	30495	2952.130243691367	1837
24	30496	2952.1314097316	1838
24	30545	2958.101176393007	1839
24	30550	2958.127740205052	1840
24	30553	2958.130243691367	1841
24	30554	2958.1314097316	1842
24	30607	2964.101176393007	1843
24	30612	2964.127740205052	1844
24	30615	2964.130243691367	1845
24	30616	2964.1314097316	1846
24	30673	2970.101176393007	1847
24	30678	2970.127740205052	1848
24	30681	2970.130243691367	1849
24	30682	2970.1314097316	1850
24	30735	2976.101176393007	1851
24	30740	2976.127740205052	1852
24	30743	2976.130243691367	1853
24	30744	2976.1314097316	1854
24	30803	2982.101176393007	1855
24	30808	2982.127740205052	1856
24	30811	2982.130243691367	1857
24	30812	2982.1314097316	1858
24	30866	2988.101176393007	1859
24	30871	2988.127740205052	1860
24	30874	2988.130243691367	1861
24	30875	2988.1314097316	1862
24	30924	2994.101176393007	1863
24	30929	2994.127740205052	1864
24	30932	2994.130243691367	1865
24	30933	2994.1314097316	1866

