version 2
run StaticNetwork-5-20220331-22:53:34-8056
attr configname StaticNetwork
attr datetime 20220331-22:53:34
attr experiment StaticNetwork
attr inifile omnetpp.ini
attr iterationvars "$0=5, $1=5, $2=normal(7.0s, 1.5s), $3=uniform(0.1s, 0.3s), $4=6s, $5=2s, $6=4.5s, $7=5s, $8=1s, $9=1, $10=7, $11=0"
attr iterationvarsf 5,5,normal(7.0s,_1.5s),uniform(0.1s,_0.3s),6s,2s,4.5s,5s,1s,1,7,0-
attr measurement "$0=5, $1=5, $2=normal(7.0s, 1.5s), $3=uniform(0.1s, 0.3s), $4=6s, $5=2s, $6=4.5s, $7=5s, $8=1s, $9=1, $10=7, $11=0"
attr network RAFT_Network
attr processid 8056
attr repetition 1
attr replication #1
attr resultdir results
attr runnumber 5
attr seedset 5
param **.servers_number 5
param **.clients_number 5
param **.client[*].requestMsgTimeout "normal(7.0s, 1.5s)"
param **.cloud.propDelay "uniform(0.1s, 0.3s)"
param **.server[*].electionTimeout 6s
param **.server[*].heartbeatTimeout 2s
param **.server[*].appendEntriesTimeout 4.5s
param **.server[*].checkFailureTimeout 5s
param **.server[*].checkRecoveryTimeout 1s
param **.failureProbability 1
param **.recoveryProbability 7
param **.messageLossProbability 0

vector 0 RAFT_Network.server[0] serverState ETV
vector 1 RAFT_Network.server[1] serverState ETV
vector 2 RAFT_Network.server[2] serverState ETV
vector 3 RAFT_Network.server[3] serverState ETV
vector 4 RAFT_Network.server[4] serverState ETV
vector 5 RAFT_Network.server[0] totMsgSent ETV
vector 6 RAFT_Network.server[0] totRequestVoteMsgSent ETV
vector 7 RAFT_Network.server[1] totMsgSent ETV
vector 8 RAFT_Network.server[1] totRequestVoteMsgSent ETV
vector 9 RAFT_Network.server[2] totMsgSent ETV
vector 10 RAFT_Network.server[2] totRequestVoteMsgSent ETV
vector 11 RAFT_Network.server[3] totMsgSent ETV
vector 12 RAFT_Network.server[3] totRequestVoteMsgSent ETV
vector 13 RAFT_Network.server[4] totMsgSent ETV
vector 14 RAFT_Network.server[4] totRequestVoteMsgSent ETV
vector 15 RAFT_Network.server[1] totMsgReceived ETV
vector 16 RAFT_Network.server[1] totReplyToClientRequestMsgSent ETV
vector 17 RAFT_Network.server[4] totMsgReceived ETV
vector 18 RAFT_Network.server[4] totReplyToClientRequestMsgSent ETV
vector 19 RAFT_Network.server[2] totMsgReceived ETV
vector 20 RAFT_Network.server[2] totReplyToClientRequestMsgSent ETV
vector 21 RAFT_Network.server[0] totMsgReceived ETV
vector 22 RAFT_Network.server[0] totReplyToClientRequestMsgSent ETV
vector 23 RAFT_Network.server[3] totMsgReceived ETV
vector 24 RAFT_Network.server[3] totReplyToClientRequestMsgSent ETV
0	0	0	0
0	6	6	0
0	6	6	1
0	71	12	1
0	71	12	1
0	133	18	1
0	133	18	1
0	193	24	1
0	193	24	1
0	242	30	1
0	242	30	1
0	303	36	1
0	303	36	1
0	362	42	1
0	362	42	1
0	422	48	1
0	422	48	1
0	486	54	1
0	486	54	1
0	551	60	1
0	551	60	1
0	605	66	1
0	605	66	1
0	665	72	1
0	665	72	1
0	729	78	1
0	729	78	1
0	789	84	1
0	789	84	1
0	851	90	1
0	851	90	1
0	918	96	1
0	918	96	1
0	978	102	1
0	978	102	1
0	1038	108	1
0	1038	108	1
0	1084	110	1
0	1084	110	-1
0	1572	164	-1
0	1572	164	0
0	1592	168.016272905316	0
0	1592	168.016272905316	0
0	1645	174.016272905316	0
0	1645	174.016272905316	1
0	1713	180.016272905316	1
0	1713	180.016272905316	1
0	1770	186.016272905316	1
0	1770	186.016272905316	1
0	1832	192.016272905316	1
0	1832	192.016272905316	1
0	1897	198.016272905316	1
0	1897	198.016272905316	1
0	1960	204.016272905316	1
0	1960	204.016272905316	1
0	2022	210.016272905316	1
0	2022	210.016272905316	1
0	2082	216.016272905316	1
0	2082	216.016272905316	1
0	2146	222.016272905316	1
0	2146	222.016272905316	1
0	2205	228.016272905316	1
0	2205	228.016272905316	1
0	2266	234.016272905316	1
0	2266	234.016272905316	1
0	2334	240.016272905316	1
0	2334	240.016272905316	1
0	2384	246.016272905316	1
0	2384	246.016272905316	1
0	2446	252.016272905316	1
0	2446	252.016272905316	1
0	2509	258.016272905316	1
0	2509	258.016272905316	1
0	2574	264.016272905316	1
0	2574	264.016272905316	1
0	2634	270.016272905316	1
0	2634	270.016272905316	1
0	2696	276.016272905316	1
0	2696	276.016272905316	1
0	2761	282.016272905316	1
0	2761	282.016272905316	1
0	2818	288.016272905316	1
0	2818	288.016272905316	1
0	2882	294.016272905316	1
0	2882	294.016272905316	1
0	2949	300.016272905316	1
0	2949	300.016272905316	1
0	3011	306.016272905316	1
0	3011	306.016272905316	1
0	3068	312.016272905316	1
0	3068	312.016272905316	1
0	3130	318.016272905316	1
0	3130	318.016272905316	1
0	3197	324.016272905316	1
0	3197	324.016272905316	1
0	3255	330.016272905316	1
0	3255	330.016272905316	1
0	3318	336.016272905316	1
0	3318	336.016272905316	1
0	3381	342.016272905316	1
0	3381	342.016272905316	1
0	3441	348.016272905316	1
0	3441	348.016272905316	1
0	3503	354.016272905316	1
0	3503	354.016272905316	1
0	3565	360.016272905316	1
0	3565	360.016272905316	1
0	3629	366.016272905316	1
0	3629	366.016272905316	1
0	3686	372.016272905316	1
0	3686	372.016272905316	1
0	3751	378.016272905316	1
0	3751	378.016272905316	1
0	3816	384.016272905316	1
0	3816	384.016272905316	1
0	3876	390.016272905316	1
0	3876	390.016272905316	1
0	3938	396.016272905316	1
0	3938	396.016272905316	1
0	4000	402.016272905316	1
0	4000	402.016272905316	1
0	4064	408.016272905316	1
0	4064	408.016272905316	1
0	4124	414.016272905316	1
0	4124	414.016272905316	1
0	4188	420.016272905316	1
0	4188	420.016272905316	1
0	4253	426.016272905316	1
0	4253	426.016272905316	1
0	4309	432.016272905316	1
0	4309	432.016272905316	1
0	4372	438.016272905316	1
0	4372	438.016272905316	1
0	4436	444.016272905316	1
0	4436	444.016272905316	1
0	4503	450.016272905316	1
0	4503	450.016272905316	1
0	4559	456.016272905316	1
0	4559	456.016272905316	1
0	4618	462.016272905316	1
0	4618	462.016272905316	1
0	4684	468.016272905316	1
0	4684	468.016272905316	1
0	4742	474.016272905316	1
0	4742	474.016272905316	1
0	4807	480.016272905316	1
0	4807	480.016272905316	1
0	4871	486.016272905316	1
0	4871	486.016272905316	1
0	4930	492.016272905316	1
0	4930	492.016272905316	1
0	4993	498.016272905316	1
0	4993	498.016272905316	1
0	5055	504.016272905316	1
0	5055	504.016272905316	1
0	5121	510.016272905316	1
0	5121	510.016272905316	1
0	5177	516.016272905316	1
0	5177	516.016272905316	1
0	5244	522.016272905316	1
0	5244	522.016272905316	1
0	5297	528.016272905316	1
0	5297	528.016272905316	1
0	5328	529	1
0	5328	529	-1
0	5333	531	-1
0	5333	531	0
0	5349	534.016272905316	0
0	5349	534.016272905316	0
0	5405	540.016272905316	0
0	5405	540.016272905316	1
0	5468	546.016272905316	1
0	5468	546.016272905316	1
0	5531	552.016272905316	1
0	5531	552.016272905316	1
0	5589	558.016272905316	1
0	5589	558.016272905316	1
0	5652	564.016272905316	1
0	5652	564.016272905316	1
0	5720	570.016272905316	1
0	5720	570.016272905316	1
0	5763	576.016272905316	1
0	5763	576.016272905316	1
0	5817	582.016272905316	1
0	5817	582.016272905316	1
0	5879	588.016272905316	1
0	5879	588.016272905316	1
0	5943	594.016272905316	1
0	5943	594.016272905316	1
0	6004	600.016272905316	1
0	6004	600.016272905316	1
0	6067	606.016272905316	1
0	6067	606.016272905316	1
0	6132	612.016272905316	1
0	6132	612.016272905316	1
0	6188	618.016272905316	1
0	6188	618.016272905316	1
0	6251	624.016272905316	1
0	6251	624.016272905316	1
0	6315	630.016272905316	1
0	6315	630.016272905316	1
0	6379	636.016272905316	1
0	6379	636.016272905316	1
0	6441	642.016272905316	1
0	6441	642.016272905316	1
0	6501	648.016272905316	1
0	6501	648.016272905316	1
0	6565	654.016272905316	1
0	6565	654.016272905316	1
0	6624	660.016272905316	1
0	6624	660.016272905316	1
0	6691	666.016272905316	1
0	6691	666.016272905316	1
0	6754	672.016272905316	1
0	6754	672.016272905316	1
0	6812	678.016272905316	1
0	6812	678.016272905316	1
0	6874	684.016272905316	1
0	6874	684.016272905316	1
0	6936	690.016272905316	1
0	6936	690.016272905316	1
0	7001	696.016272905316	1
0	7001	696.016272905316	1
0	7056	702.016272905316	1
0	7056	702.016272905316	1
0	7121	708.016272905316	1
0	7121	708.016272905316	1
0	7186	714.016272905316	1
0	7186	714.016272905316	1
0	7248	720.016272905316	1
0	7248	720.016272905316	1
0	7303	726.016272905316	1
0	7303	726.016272905316	1
0	7354	732.016272905316	1
0	7354	732.016272905316	1
0	7408	738.016272905316	1
0	7408	738.016272905316	1
0	7468	744.016272905316	1
0	7468	744.016272905316	1
0	7533	750.016272905316	1
0	7533	750.016272905316	1
0	7599	756.016272905316	1
0	7599	756.016272905316	1
0	7655	762.016272905316	1
0	7655	762.016272905316	1
0	7718	768.016272905316	1
0	7718	768.016272905316	1
0	7780	774.016272905316	1
0	7780	774.016272905316	1
0	7845	780.016272905316	1
0	7845	780.016272905316	1
0	7908	786.016272905316	1
0	7908	786.016272905316	1
0	7968	792.016272905316	1
0	7968	792.016272905316	1
0	8032	798.016272905316	1
0	8032	798.016272905316	1
0	8089	804.016272905316	1
0	8089	804.016272905316	1
0	8148	810.016272905316	1
0	8148	810.016272905316	1
0	8201	816.016272905316	1
0	8201	816.016272905316	1
0	8254	822.016272905316	1
0	8254	822.016272905316	1
0	8308	828.016272905316	1
0	8308	828.016272905316	1
0	8363	834.016272905316	1
0	8363	834.016272905316	1
0	8419	840.016272905316	1
0	8419	840.016272905316	1
0	8464	846.016272905316	1
0	8464	846.016272905316	1
0	8521	852.016272905316	1
0	8521	852.016272905316	1
0	8578	858.016272905316	1
0	8578	858.016272905316	1
0	8623	864.016272905316	1
0	8623	864.016272905316	1
0	8679	870.016272905316	1
0	8679	870.016272905316	1
0	8740	876.016272905316	1
0	8740	876.016272905316	1
0	8790	882.016272905316	1
0	8790	882.016272905316	1
0	8840	888.016272905316	1
0	8840	888.016272905316	1
0	8906	894.016272905316	1
0	8906	894.016272905316	1
0	8972	900.016272905316	1
0	8972	900.016272905316	1
0	9030	906.016272905316	1
0	9030	906.016272905316	1
0	9093	912.016272905316	1
0	9093	912.016272905316	1
0	9153	918.016272905316	1
0	9153	918.016272905316	1
0	9215	924.016272905316	1
0	9215	924.016272905316	1
0	9277	930.016272905316	1
0	9277	930.016272905316	1
0	9339	936.016272905316	1
0	9339	936.016272905316	1
0	9404	942.016272905316	1
0	9404	942.016272905316	1
0	9460	948.016272905316	1
0	9460	948.016272905316	1
0	9527	954.016272905316	1
0	9527	954.016272905316	1
0	9589	960.016272905316	1
0	9589	960.016272905316	1
0	9644	966.016272905316	1
0	9644	966.016272905316	1
0	9699	972.016272905316	1
0	9699	972.016272905316	1
0	9761	978.016272905316	1
0	9761	978.016272905316	1
0	9824	984.016272905316	1
0	9824	984.016272905316	1
0	9881	990.016272905316	1
0	9881	990.016272905316	1
0	9947	996.016272905316	1
0	9947	996.016272905316	1
0	10011	1002.016272905316	1
0	10011	1002.016272905316	1
0	10072	1008.016272905316	1
0	10072	1008.016272905316	1
0	10134	1014.016272905316	1
0	10134	1014.016272905316	1
0	10196	1020.016272905316	1
0	10196	1020.016272905316	1
0	10259	1026.016272905316	1
0	10259	1026.016272905316	1
0	10318	1032.016272905316	1
0	10318	1032.016272905316	1
0	10379	1038.016272905316	1
0	10379	1038.016272905316	1
0	10446	1044.016272905316	1
0	10446	1044.016272905316	1
0	10503	1050.016272905316	1
0	10503	1050.016272905316	1
0	10567	1056.016272905316	1
0	10567	1056.016272905316	1
0	10629	1062.016272905316	1
0	10629	1062.016272905316	1
0	10691	1068.016272905316	1
0	10691	1068.016272905316	1
0	10752	1074.016272905316	1
0	10752	1074.016272905316	1
0	10816	1080.016272905316	1
0	10816	1080.016272905316	1
0	10879	1086.016272905316	1
0	10879	1086.016272905316	1
0	10938	1092.016272905316	1
0	10938	1092.016272905316	1
0	11003	1098.016272905316	1
0	11003	1098.016272905316	1
0	11066	1104.016272905316	1
0	11066	1104.016272905316	1
0	11126	1110.016272905316	1
0	11126	1110.016272905316	1
0	11188	1116.016272905316	1
0	11188	1116.016272905316	1
0	11253	1122.016272905316	1
0	11253	1122.016272905316	1
0	11314	1128.016272905316	1
0	11314	1128.016272905316	1
0	11373	1134.016272905316	1
0	11373	1134.016272905316	1
0	11418	1136	1
0	11418	1136	-1
0	11751	1174	-1
0	11751	1174	0
0	11758	1176.016272905316	0
0	11758	1176.016272905316	0
0	11814	1182.016272905316	0
0	11814	1182.016272905316	1
0	11876	1188.016272905316	1
0	11876	1188.016272905316	1
0	11940	1194.016272905316	1
0	11940	1194.016272905316	1
0	12002	1200.016272905316	1
0	12002	1200.016272905316	1
0	12062	1206.016272905316	1
0	12062	1206.016272905316	1
0	12126	1212.016272905316	1
0	12126	1212.016272905316	1
0	12185	1218.016272905316	1
0	12185	1218.016272905316	1
0	12252	1224.016272905316	1
0	12252	1224.016272905316	1
0	12312	1230.016272905316	1
0	12312	1230.016272905316	1
0	12371	1236.016272905316	1
0	12371	1236.016272905316	1
0	12438	1242.016272905316	1
0	12438	1242.016272905316	1
0	12499	1248.016272905316	1
0	12499	1248.016272905316	1
0	12562	1254.016272905316	1
0	12562	1254.016272905316	1
0	12620	1260.016272905316	1
0	12620	1260.016272905316	1
0	12683	1266.016272905316	1
0	12683	1266.016272905316	1
0	12746	1272.016272905316	1
0	12746	1272.016272905316	1
0	12803	1278.016272905316	1
0	12803	1278.016272905316	1
0	12871	1284.016272905316	1
0	12871	1284.016272905316	1
0	12933	1290.016272905316	1
0	12933	1290.016272905316	1
0	12994	1296.016272905316	1
0	12994	1296.016272905316	1
0	13055	1302.016272905316	1
0	13055	1302.016272905316	1
0	13118	1308.016272905316	1
0	13118	1308.016272905316	1
0	13183	1314.016272905316	1
0	13183	1314.016272905316	1
0	13241	1320.016272905316	1
0	13241	1320.016272905316	1
0	13304	1326.016272905316	1
0	13304	1326.016272905316	1
0	13367	1332.016272905316	1
0	13367	1332.016272905316	1
0	13429	1338.016272905316	1
0	13429	1338.016272905316	1
0	13494	1344.016272905316	1
0	13494	1344.016272905316	1
0	13554	1350.016272905316	1
0	13554	1350.016272905316	1
0	13616	1356.016272905316	1
0	13616	1356.016272905316	1
0	13677	1362.016272905316	1
0	13677	1362.016272905316	1
0	13741	1368.016272905316	1
0	13741	1368.016272905316	1
0	13800	1374.016272905316	1
0	13800	1374.016272905316	1
0	13860	1380.016272905316	1
0	13860	1380.016272905316	1
0	13925	1386.016272905316	1
0	13925	1386.016272905316	1
0	13988	1392.016272905316	1
0	13988	1392.016272905316	1
0	14048	1398.016272905316	1
0	14048	1398.016272905316	1
0	14110	1404.016272905316	1
0	14110	1404.016272905316	1
0	14175	1410.016272905316	1
0	14175	1410.016272905316	1
0	14236	1416.016272905316	1
0	14236	1416.016272905316	1
0	14295	1422.016272905316	1
0	14295	1422.016272905316	1
0	14360	1428.016272905316	1
0	14360	1428.016272905316	1
0	14424	1434.016272905316	1
0	14424	1434.016272905316	1
0	14486	1440.016272905316	1
0	14486	1440.016272905316	1
0	14535	1446.016272905316	1
0	14535	1446.016272905316	1
0	14590	1452.016272905316	1
0	14590	1452.016272905316	1
0	14645	1458.016272905316	1
0	14645	1458.016272905316	1
0	14705	1464.016272905316	1
0	14705	1464.016272905316	1
0	14768	1470.016272905316	1
0	14768	1470.016272905316	1
0	14827	1476.016272905316	1
0	14827	1476.016272905316	1
0	14893	1482.016272905316	1
0	14893	1482.016272905316	1
0	14954	1488.016272905316	1
0	14954	1488.016272905316	1
0	15015	1494.016272905316	1
0	15015	1494.016272905316	1
0	15077	1500.016272905316	1
0	15077	1500.016272905316	1
0	15136	1506.016272905316	1
0	15136	1506.016272905316	1
0	15202	1512.016272905316	1
0	15202	1512.016272905316	1
0	15260	1518.016272905316	1
0	15260	1518.016272905316	1
0	15324	1524.016272905316	1
0	15324	1524.016272905316	1
0	15389	1530.016272905316	1
0	15389	1530.016272905316	1
0	15450	1536.016272905316	1
0	15450	1536.016272905316	1
0	15512	1542.016272905316	1
0	15512	1542.016272905316	1
0	15572	1548.016272905316	1
0	15572	1548.016272905316	1
0	15639	1554.016272905316	1
0	15639	1554.016272905316	1
0	15697	1560.016272905316	1
0	15697	1560.016272905316	1
0	15757	1566.016272905316	1
0	15757	1566.016272905316	1
0	15824	1572.016272905316	1
0	15824	1572.016272905316	1
0	15886	1578.016272905316	1
0	15886	1578.016272905316	1
0	15950	1584.016272905316	1
0	15950	1584.016272905316	1
0	16007	1590.016272905316	1
0	16007	1590.016272905316	1
0	16072	1596.016272905316	1
0	16072	1596.016272905316	1
0	16136	1602.016272905316	1
0	16136	1602.016272905316	1
0	16192	1608.016272905316	1
0	16192	1608.016272905316	1
0	16257	1614.016272905316	1
0	16257	1614.016272905316	1
0	16316	1620.016272905316	1
0	16316	1620.016272905316	1
0	16380	1626.016272905316	1
0	16380	1626.016272905316	1
0	16441	1632.016272905316	1
0	16441	1632.016272905316	1
0	16505	1638.016272905316	1
0	16505	1638.016272905316	1
0	16569	1644.016272905316	1
0	16569	1644.016272905316	1
0	16623	1649	1
0	16623	1649	-1
0	16873	1678	-1
0	16873	1678	0
0	16889	1680.038166445085	0
0	16889	1680.038166445085	0
0	16941	1686.038166445085	0
0	16941	1686.038166445085	1
0	17002	1692.038166445085	1
0	17002	1692.038166445085	1
0	17069	1698.038166445085	1
0	17069	1698.038166445085	1
0	17128	1704.038166445085	1
0	17128	1704.038166445085	1
0	17188	1710.038166445085	1
0	17188	1710.038166445085	1
0	17253	1716.038166445085	1
0	17253	1716.038166445085	1
0	17312	1722.038166445085	1
0	17312	1722.038166445085	1
0	17377	1728.038166445085	1
0	17377	1728.038166445085	1
0	17435	1734.038166445085	1
0	17435	1734.038166445085	1
0	17500	1740.038166445085	1
0	17500	1740.038166445085	1
0	17559	1746.038166445085	1
0	17559	1746.038166445085	1
0	17622	1752.038166445085	1
0	17622	1752.038166445085	1
0	17687	1758.038166445085	1
0	17687	1758.038166445085	1
0	17747	1764.038166445085	1
0	17747	1764.038166445085	1
0	17812	1770.038166445085	1
0	17812	1770.038166445085	1
0	17870	1776.038166445085	1
0	17870	1776.038166445085	1
0	17935	1782.038166445085	1
0	17935	1782.038166445085	1
0	17999	1788.038166445085	1
0	17999	1788.038166445085	1
0	18059	1794.038166445085	1
0	18059	1794.038166445085	1
0	18123	1800.038166445085	1
0	18123	1800.038166445085	1
0	18180	1806.038166445085	1
0	18180	1806.038166445085	1
0	18245	1812.038166445085	1
0	18245	1812.038166445085	1
0	18308	1818.038166445085	1
0	18308	1818.038166445085	1
0	18372	1824.038166445085	1
0	18372	1824.038166445085	1
0	18433	1830.038166445085	1
0	18433	1830.038166445085	1
0	18491	1836.038166445085	1
0	18491	1836.038166445085	1
0	18556	1842.038166445085	1
0	18556	1842.038166445085	1
0	18616	1848.038166445085	1
0	18616	1848.038166445085	1
0	18677	1854.038166445085	1
0	18677	1854.038166445085	1
0	18741	1860.038166445085	1
0	18741	1860.038166445085	1
0	18801	1866.038166445085	1
0	18801	1866.038166445085	1
0	18867	1872.038166445085	1
0	18867	1872.038166445085	1
0	18929	1878.038166445085	1
0	18929	1878.038166445085	1
0	18985	1884.038166445085	1
0	18985	1884.038166445085	1
0	19036	1890.038166445085	1
0	19036	1890.038166445085	1
0	19097	1896.038166445085	1
0	19097	1896.038166445085	1
0	19163	1902.038166445085	1
0	19163	1902.038166445085	1
0	19223	1908.038166445085	1
0	19223	1908.038166445085	1
0	19289	1914.038166445085	1
0	19289	1914.038166445085	1
0	19347	1920.038166445085	1
0	19347	1920.038166445085	1
0	19409	1926.038166445085	1
0	19409	1926.038166445085	1
0	19472	1932.038166445085	1
0	19472	1932.038166445085	1
0	19535	1938.038166445085	1
0	19535	1938.038166445085	1
0	19600	1944.038166445085	1
0	19600	1944.038166445085	1
0	19656	1950.038166445085	1
0	19656	1950.038166445085	1
0	19717	1956.038166445085	1
0	19717	1956.038166445085	1
0	19777	1962.038166445085	1
0	19777	1962.038166445085	1
0	19831	1968.038166445085	1
0	19831	1968.038166445085	1
0	19887	1974.038166445085	1
0	19887	1974.038166445085	1
0	19934	1980.038166445085	1
0	19934	1980.038166445085	1
0	19993	1986.038166445085	1
0	19993	1986.038166445085	1
0	20053	1992.038166445085	1
0	20053	1992.038166445085	1
0	20114	1998.038166445085	1
0	20114	1998.038166445085	1
0	20178	2004.038166445085	1
0	20178	2004.038166445085	1
0	20232	2010.038166445085	1
0	20232	2010.038166445085	1
0	20297	2016.038166445085	1
0	20297	2016.038166445085	1
0	20355	2022.038166445085	1
0	20355	2022.038166445085	1
0	20421	2028.038166445085	1
0	20421	2028.038166445085	1
0	20482	2034.038166445085	1
0	20482	2034.038166445085	1
0	20543	2040.038166445085	1
0	20543	2040.038166445085	1
0	20606	2046.038166445085	1
0	20606	2046.038166445085	1
0	20667	2052.038166445085	1
0	20667	2052.038166445085	1
0	20736	2058.038166445085	1
0	20736	2058.038166445085	1
0	20786	2064.038166445085	1
0	20786	2064.038166445085	1
0	20836	2070.038166445085	1
0	20836	2070.038166445085	1
0	20891	2076.038166445085	1
0	20891	2076.038166445085	1
0	20944	2082.038166445085	1
0	20944	2082.038166445085	1
0	21001	2088.038166445085	1
0	21001	2088.038166445085	1
0	21061	2094.038166445085	1
0	21061	2094.038166445085	1
0	21118	2100.038166445085	1
0	21118	2100.038166445085	1
0	21179	2106.038166445085	1
0	21179	2106.038166445085	1
0	21241	2112.038166445085	1
0	21241	2112.038166445085	1
0	21304	2118.038166445085	1
0	21304	2118.038166445085	1
0	21365	2124.038166445085	1
0	21365	2124.038166445085	1
0	21431	2130.038166445085	1
0	21431	2130.038166445085	1
0	21490	2136.038166445085	1
0	21490	2136.038166445085	1
0	21551	2142.038166445085	1
0	21551	2142.038166445085	1
0	21615	2148.038166445085	1
0	21615	2148.038166445085	1
0	21677	2154.038166445085	1
0	21677	2154.038166445085	1
0	21742	2160.038166445085	1
0	21742	2160.038166445085	1
0	21800	2166.038166445085	1
0	21800	2166.038166445085	1
0	21866	2172.038166445085	1
0	21866	2172.038166445085	1
0	21919	2178.038166445085	1
0	21919	2178.038166445085	1
0	21970	2184.038166445085	1
0	21970	2184.038166445085	1
0	22022	2190.038166445085	1
0	22022	2190.038166445085	1
0	22077	2196.038166445085	1
0	22077	2196.038166445085	1
0	22135	2202.038166445085	1
0	22135	2202.038166445085	1
0	22187	2208.038166445085	1
0	22187	2208.038166445085	1
0	22239	2214.038166445085	1
0	22239	2214.038166445085	1
0	22293	2220.038166445085	1
0	22293	2220.038166445085	1
0	22348	2226.038166445085	1
0	22348	2226.038166445085	1
0	22413	2232.038166445085	1
0	22413	2232.038166445085	1
0	22472	2238.038166445085	1
0	22472	2238.038166445085	1
0	22536	2244.038166445085	1
0	22536	2244.038166445085	1
0	22597	2250.038166445085	1
0	22597	2250.038166445085	1
0	22659	2256.038166445085	1
0	22659	2256.038166445085	1
0	22720	2262.038166445085	1
0	22720	2262.038166445085	1
0	22784	2268.038166445085	1
0	22784	2268.038166445085	1
0	22849	2274.038166445085	1
0	22849	2274.038166445085	1
0	22908	2280.038166445085	1
0	22908	2280.038166445085	1
0	22969	2286.038166445085	1
0	22969	2286.038166445085	1
0	23031	2292.038166445085	1
0	23031	2292.038166445085	1
0	23093	2298.038166445085	1
0	23093	2298.038166445085	1
0	23155	2304.038166445085	1
0	23155	2304.038166445085	1
0	23215	2310.038166445085	1
0	23215	2310.038166445085	1
0	23278	2316.038166445085	1
0	23278	2316.038166445085	1
0	23341	2322.038166445085	1
0	23341	2322.038166445085	1
0	23404	2328.038166445085	1
0	23404	2328.038166445085	1
0	23464	2334.038166445085	1
0	23464	2334.038166445085	1
0	23527	2340.038166445085	1
0	23527	2340.038166445085	1
0	23593	2346.038166445085	1
0	23593	2346.038166445085	1
0	23653	2352.038166445085	1
0	23653	2352.038166445085	1
0	23707	2358.038166445085	1
0	23707	2358.038166445085	1
0	23761	2364.038166445085	1
0	23761	2364.038166445085	1
0	23812	2370.038166445085	1
0	23812	2370.038166445085	1
0	23867	2376.038166445085	1
0	23867	2376.038166445085	1
0	23919	2382.038166445085	1
0	23919	2382.038166445085	1
0	23976	2388.038166445085	1
0	23976	2388.038166445085	1
0	24027	2394.038166445085	1
0	24027	2394.038166445085	1
0	24082	2400.038166445085	1
0	24082	2400.038166445085	1
0	24143	2406.038166445085	1
0	24143	2406.038166445085	1
0	24202	2412.038166445085	1
0	24202	2412.038166445085	1
0	24268	2418.038166445085	1
0	24268	2418.038166445085	1
0	24327	2424.038166445085	1
0	24327	2424.038166445085	1
0	24389	2430.038166445085	1
0	24389	2430.038166445085	1
0	24452	2436.038166445085	1
0	24452	2436.038166445085	1
0	24503	2442.038166445085	1
0	24503	2442.038166445085	1
0	24557	2448.038166445085	1
0	24557	2448.038166445085	1
0	24618	2454.038166445085	1
0	24618	2454.038166445085	1
0	24681	2460.038166445085	1
0	24681	2460.038166445085	1
0	24744	2466.038166445085	1
0	24744	2466.038166445085	1
0	24805	2472.038166445085	1
0	24805	2472.038166445085	1
0	24867	2478.038166445085	1
0	24867	2478.038166445085	1
0	24930	2484.038166445085	1
0	24930	2484.038166445085	1
0	24994	2490.038166445085	1
0	24994	2490.038166445085	1
0	25055	2496.038166445085	1
0	25055	2496.038166445085	1
0	25115	2502.038166445085	1
0	25115	2502.038166445085	1
0	25179	2508.038166445085	1
0	25179	2508.038166445085	1
0	25242	2514.038166445085	1
0	25242	2514.038166445085	1
0	25304	2520.038166445085	1
0	25304	2520.038166445085	1
0	25362	2526.038166445085	1
0	25362	2526.038166445085	1
0	25426	2532.038166445085	1
0	25426	2532.038166445085	1
0	25488	2538.038166445085	1
0	25488	2538.038166445085	1
0	25550	2544.038166445085	1
0	25550	2544.038166445085	1
0	25611	2550.038166445085	1
0	25611	2550.038166445085	1
0	25663	2553	1
0	25663	2553	-1
0	25977	2587	-1
0	25977	2587	0
0	26003	2592.060059984854	0
0	26003	2592.060059984854	0
0	26055	2598.060059984854	0
0	26055	2598.060059984854	1
0	26118	2604.060059984854	1
0	26118	2604.060059984854	1
0	26181	2610.060059984854	1
0	26181	2610.060059984854	1
0	26243	2616.060059984854	1
0	26243	2616.060059984854	1
0	26304	2622.060059984854	1
0	26304	2622.060059984854	1
0	26367	2628.060059984854	1
0	26367	2628.060059984854	1
0	26430	2634.060059984854	1
0	26430	2634.060059984854	1
0	26491	2640.060059984854	1
0	26491	2640.060059984854	1
0	26550	2646.060059984854	1
0	26550	2646.060059984854	1
0	26613	2652.060059984854	1
0	26613	2652.060059984854	1
0	26676	2658.060059984854	1
0	26676	2658.060059984854	1
0	26737	2664.060059984854	1
0	26737	2664.060059984854	1
0	26799	2670.060059984854	1
0	26799	2670.060059984854	1
0	26864	2676.060059984854	1
0	26864	2676.060059984854	1
0	26925	2682.060059984854	1
0	26925	2682.060059984854	1
0	26987	2688.060059984854	1
0	26987	2688.060059984854	1
0	27048	2694.060059984854	1
0	27048	2694.060059984854	1
0	27111	2700.060059984854	1
0	27111	2700.060059984854	1
0	27171	2706.060059984854	1
0	27171	2706.060059984854	1
0	27236	2712.060059984854	1
0	27236	2712.060059984854	1
0	27298	2718.060059984854	1
0	27298	2718.060059984854	1
0	27360	2724.060059984854	1
0	27360	2724.060059984854	1
0	27423	2730.060059984854	1
0	27423	2730.060059984854	1
0	27485	2736.060059984854	1
0	27485	2736.060059984854	1
0	27546	2742.060059984854	1
0	27546	2742.060059984854	1
0	27606	2748.060059984854	1
0	27606	2748.060059984854	1
0	27674	2754.060059984854	1
0	27674	2754.060059984854	1
0	27726	2760.060059984854	1
0	27726	2760.060059984854	1
0	27777	2766.060059984854	1
0	27777	2766.060059984854	1
0	27832	2772.060059984854	1
0	27832	2772.060059984854	1
0	27895	2778.060059984854	1
0	27895	2778.060059984854	1
0	27957	2784.060059984854	1
0	27957	2784.060059984854	1
0	28018	2790.060059984854	1
0	28018	2790.060059984854	1
0	28081	2796.060059984854	1
0	28081	2796.060059984854	1
0	28144	2802.060059984854	1
0	28144	2802.060059984854	1
0	28203	2808.060059984854	1
0	28203	2808.060059984854	1
0	28267	2814.060059984854	1
0	28267	2814.060059984854	1
0	28330	2820.060059984854	1
0	28330	2820.060059984854	1
0	28393	2826.060059984854	1
0	28393	2826.060059984854	1
0	28455	2832.060059984854	1
0	28455	2832.060059984854	1
0	28505	2837	1
0	28505	2837	-1
0	28602	2846	-1
0	28602	2846	0
0	28620	2850.067044644047	0
0	28620	2850.067044644047	0
0	28665	2856.067044644047	0
0	28665	2856.067044644047	1
0	28709	2862.067044644047	1
0	28709	2862.067044644047	1
1	0	0	0
1	7	6	0
1	7	6	1
1	72	12	1
1	72	12	1
1	134	18	1
1	134	18	1
1	194	24	1
1	194	24	1
1	243	30	1
1	243	30	1
1	304	36	1
1	304	36	1
1	363	42	1
1	363	42	1
1	423	48	1
1	423	48	1
1	487	54	1
1	487	54	1
1	532	55	1
1	532	55	-1
1	544	58	-1
1	544	58	0
1	558	60.004209383034	0
1	558	60.004209383034	0
1	608	66.004209383034	0
1	608	66.004209383034	1
1	668	72.004209383034	1
1	668	72.004209383034	1
1	733	78.004209383034	1
1	733	78.004209383034	1
1	792	84.004209383034	1
1	792	84.004209383034	1
1	858	90.004209383034	1
1	858	90.004209383034	1
1	921	96.004209383034	1
1	921	96.004209383034	1
1	981	102.004209383034	1
1	981	102.004209383034	1
1	1042	108.004209383034	1
1	1042	108.004209383034	1
1	1109	114.004209383034	1
1	1109	114.004209383034	1
1	1162	120.004209383034	1
1	1162	120.004209383034	1
1	1212	126.004209383034	1
1	1212	126.004209383034	1
1	1266	132.004209383034	1
1	1266	132.004209383034	1
1	1324	138.004209383034	1
1	1324	138.004209383034	1
1	1371	144.004209383034	1
1	1371	144.004209383034	1
1	1429	150.004209383034	1
1	1429	150.004209383034	1
1	1486	156.004209383034	1
1	1486	156.004209383034	1
1	1540	162.004209383034	1
1	1540	162.004209383034	1
1	1586	168.004209383034	1
1	1586	168.004209383034	1
1	1639	174.004209383034	1
1	1639	174.004209383034	1
1	1707	180.004209383034	1
1	1707	180.004209383034	1
1	1764	186.004209383034	1
1	1764	186.004209383034	1
1	1826	192.004209383034	1
1	1826	192.004209383034	1
1	1891	198.004209383034	1
1	1891	198.004209383034	1
1	1954	204.004209383034	1
1	1954	204.004209383034	1
1	2016	210.004209383034	1
1	2016	210.004209383034	1
1	2076	216.004209383034	1
1	2076	216.004209383034	1
1	2140	222.004209383034	1
1	2140	222.004209383034	1
1	2199	228.004209383034	1
1	2199	228.004209383034	1
1	2260	234.004209383034	1
1	2260	234.004209383034	1
1	2329	240.004209383034	1
1	2329	240.004209383034	1
1	2378	246.004209383034	1
1	2378	246.004209383034	1
1	2440	252.004209383034	1
1	2440	252.004209383034	1
1	2503	258.004209383034	1
1	2503	258.004209383034	1
1	2568	264.004209383034	1
1	2568	264.004209383034	1
1	2628	270.004209383034	1
1	2628	270.004209383034	1
1	2690	276.004209383034	1
1	2690	276.004209383034	1
1	2755	282.004209383034	1
1	2755	282.004209383034	1
1	2812	288.004209383034	1
1	2812	288.004209383034	1
1	2876	294.004209383034	1
1	2876	294.004209383034	1
1	2943	300.004209383034	1
1	2943	300.004209383034	1
1	3005	306.004209383034	1
1	3005	306.004209383034	1
1	3062	312.004209383034	1
1	3062	312.004209383034	1
1	3124	318.004209383034	1
1	3124	318.004209383034	1
1	3191	324.004209383034	1
1	3191	324.004209383034	1
1	3249	330.004209383034	1
1	3249	330.004209383034	1
1	3312	336.004209383034	1
1	3312	336.004209383034	1
1	3375	342.004209383034	1
1	3375	342.004209383034	1
1	3435	348.004209383034	1
1	3435	348.004209383034	1
1	3497	354.004209383034	1
1	3497	354.004209383034	1
1	3559	360.004209383034	1
1	3559	360.004209383034	1
1	3623	366.004209383034	1
1	3623	366.004209383034	1
1	3680	372.004209383034	1
1	3680	372.004209383034	1
1	3745	378.004209383034	1
1	3745	378.004209383034	1
1	3810	384.004209383034	1
1	3810	384.004209383034	1
1	3870	390.004209383034	1
1	3870	390.004209383034	1
1	3932	396.004209383034	1
1	3932	396.004209383034	1
1	3994	402.004209383034	1
1	3994	402.004209383034	1
1	4058	408.004209383034	1
1	4058	408.004209383034	1
1	4118	414.004209383034	1
1	4118	414.004209383034	1
1	4182	420.004209383034	1
1	4182	420.004209383034	1
1	4247	426.004209383034	1
1	4247	426.004209383034	1
1	4303	432.004209383034	1
1	4303	432.004209383034	1
1	4366	438.004209383034	1
1	4366	438.004209383034	1
1	4430	444.004209383034	1
1	4430	444.004209383034	1
1	4497	450.004209383034	1
1	4497	450.004209383034	1
1	4553	456.004209383034	1
1	4553	456.004209383034	1
1	4612	462.004209383034	1
1	4612	462.004209383034	1
1	4678	468.004209383034	1
1	4678	468.004209383034	1
1	4736	474.004209383034	1
1	4736	474.004209383034	1
1	4801	480.004209383034	1
1	4801	480.004209383034	1
1	4865	486.004209383034	1
1	4865	486.004209383034	1
1	4924	492.004209383034	1
1	4924	492.004209383034	1
1	4987	498.004209383034	1
1	4987	498.004209383034	1
1	5049	504.004209383034	1
1	5049	504.004209383034	1
1	5115	510.004209383034	1
1	5115	510.004209383034	1
1	5171	516.004209383034	1
1	5171	516.004209383034	1
1	5239	522.004209383034	1
1	5239	522.004209383034	1
1	5292	528.004209383034	1
1	5292	528.004209383034	1
1	5343	534.004209383034	1
1	5343	534.004209383034	1
1	5399	540.004209383034	1
1	5399	540.004209383034	1
1	5462	546.004209383034	1
1	5462	546.004209383034	1
1	5525	552.004209383034	1
1	5525	552.004209383034	1
1	5582	558.004209383034	1
1	5582	558.004209383034	1
1	5646	564.004209383034	1
1	5646	564.004209383034	1
1	5697	568	1
1	5697	568	-1
1	5747	571	-1
1	5747	571	0
1	5758	576.004209383034	0
1	5758	576.004209383034	0
1	5811	582.004209383034	0
1	5811	582.004209383034	1
1	5873	588.004209383034	1
1	5873	588.004209383034	1
1	5937	594.004209383034	1
1	5937	594.004209383034	1
1	5998	600.004209383034	1
1	5998	600.004209383034	1
1	6061	606.004209383034	1
1	6061	606.004209383034	1
1	6126	612.004209383034	1
1	6126	612.004209383034	1
1	6182	618.004209383034	1
1	6182	618.004209383034	1
1	6245	624.004209383034	1
1	6245	624.004209383034	1
1	6309	630.004209383034	1
1	6309	630.004209383034	1
1	6373	636.004209383034	1
1	6373	636.004209383034	1
1	6435	642.004209383034	1
1	6435	642.004209383034	1
1	6495	648.004209383034	1
1	6495	648.004209383034	1
1	6559	654.004209383034	1
1	6559	654.004209383034	1
1	6618	660.004209383034	1
1	6618	660.004209383034	1
1	6685	666.004209383034	1
1	6685	666.004209383034	1
1	6748	672.004209383034	1
1	6748	672.004209383034	1
1	6806	678.004209383034	1
1	6806	678.004209383034	1
1	6868	684.004209383034	1
1	6868	684.004209383034	1
1	6930	690.004209383034	1
1	6930	690.004209383034	1
1	6995	696.004209383034	1
1	6995	696.004209383034	1
1	7050	702.004209383034	1
1	7050	702.004209383034	1
1	7115	708.004209383034	1
1	7115	708.004209383034	1
1	7180	714.004209383034	1
1	7180	714.004209383034	1
1	7230	716	1
1	7230	716	-1
1	7339	729	-1
1	7339	729	0
1	7349	732.004209383034	0
1	7349	732.004209383034	0
1	7402	738.004209383034	0
1	7402	738.004209383034	1
1	7462	744.004209383034	1
1	7462	744.004209383034	1
1	7527	750.004209383034	1
1	7527	750.004209383034	1
1	7593	756.004209383034	1
1	7593	756.004209383034	1
1	7649	762.004209383034	1
1	7649	762.004209383034	1
1	7712	768.004209383034	1
1	7712	768.004209383034	1
1	7774	774.004209383034	1
1	7774	774.004209383034	1
1	7839	780.004209383034	1
1	7839	780.004209383034	1
1	7902	786.004209383034	1
1	7902	786.004209383034	1
1	7962	792.004209383034	1
1	7962	792.004209383034	1
1	8026	798.004209383034	1
1	8026	798.004209383034	1
1	8084	804.004209383034	1
1	8084	804.004209383034	1
1	8143	810.004209383034	1
1	8143	810.004209383034	1
1	8196	816.004209383034	1
1	8196	816.004209383034	1
1	8249	822.004209383034	1
1	8249	822.004209383034	1
1	8303	828.004209383034	1
1	8303	828.004209383034	1
1	8358	834.004209383034	1
1	8358	834.004209383034	1
1	8414	840.004209383034	1
1	8414	840.004209383034	1
1	8459	846.004209383034	1
1	8459	846.004209383034	1
1	8516	852.004209383034	1
1	8516	852.004209383034	1
1	8573	858.004209383034	1
1	8573	858.004209383034	1
1	8618	864.004209383034	1
1	8618	864.004209383034	1
1	8673	870.004209383034	1
1	8673	870.004209383034	1
1	8736	876.004209383034	1
1	8736	876.004209383034	1
1	8786	882.004209383034	1
1	8786	882.004209383034	1
1	8834	888.004209383034	1
1	8834	888.004209383034	1
1	8900	894.004209383034	1
1	8900	894.004209383034	1
1	8966	900.004209383034	1
1	8966	900.004209383034	1
1	9023	906.004209383034	1
1	9023	906.004209383034	1
1	9087	912.004209383034	1
1	9087	912.004209383034	1
1	9147	918.004209383034	1
1	9147	918.004209383034	1
1	9209	924.004209383034	1
1	9209	924.004209383034	1
1	9271	930.004209383034	1
1	9271	930.004209383034	1
1	9333	936.004209383034	1
1	9333	936.004209383034	1
1	9398	942.004209383034	1
1	9398	942.004209383034	1
1	9454	948.004209383034	1
1	9454	948.004209383034	1
1	9521	954.004209383034	1
1	9521	954.004209383034	1
1	9582	960.004209383034	1
1	9582	960.004209383034	1
1	9640	966.004209383034	1
1	9640	966.004209383034	1
1	9695	972.004209383034	1
1	9695	972.004209383034	1
1	9757	978.004209383034	1
1	9757	978.004209383034	1
1	9819	984.004209383034	1
1	9819	984.004209383034	1
1	9877	990.004209383034	1
1	9877	990.004209383034	1
1	9943	996.004209383034	1
1	9943	996.004209383034	1
1	10007	1002.004209383034	1
1	10007	1002.004209383034	1
1	10067	1008.004209383034	1
1	10067	1008.004209383034	1
1	10130	1014.004209383034	1
1	10130	1014.004209383034	1
1	10192	1020.004209383034	1
1	10192	1020.004209383034	1
1	10255	1026.004209383034	1
1	10255	1026.004209383034	1
1	10313	1032.004209383034	1
1	10313	1032.004209383034	1
1	10375	1038.004209383034	1
1	10375	1038.004209383034	1
1	10442	1044.004209383034	1
1	10442	1044.004209383034	1
1	10499	1050.004209383034	1
1	10499	1050.004209383034	1
1	10562	1056.004209383034	1
1	10562	1056.004209383034	1
1	10625	1062.004209383034	1
1	10625	1062.004209383034	1
1	10687	1068.004209383034	1
1	10687	1068.004209383034	1
1	10748	1074.004209383034	1
1	10748	1074.004209383034	1
1	10811	1080.004209383034	1
1	10811	1080.004209383034	1
1	10875	1086.004209383034	1
1	10875	1086.004209383034	1
1	10934	1092.004209383034	1
1	10934	1092.004209383034	1
1	10999	1098.004209383034	1
1	10999	1098.004209383034	1
1	11061	1104.004209383034	1
1	11061	1104.004209383034	1
1	11122	1110.004209383034	1
1	11122	1110.004209383034	1
1	11184	1116.004209383034	1
1	11184	1116.004209383034	1
1	11249	1122.004209383034	1
1	11249	1122.004209383034	1
1	11309	1128.004209383034	1
1	11309	1128.004209383034	1
1	11369	1134.004209383034	1
1	11369	1134.004209383034	1
1	11438	1140.004209383034	1
1	11438	1140.004209383034	1
1	11491	1146.004209383034	1
1	11491	1146.004209383034	1
1	11543	1152.004209383034	1
1	11543	1152.004209383034	1
1	11596	1158.004209383034	1
1	11596	1158.004209383034	1
1	11652	1164.004209383034	1
1	11652	1164.004209383034	1
1	11706	1170.004209383034	1
1	11706	1170.004209383034	1
1	11754	1176.004209383034	1
1	11754	1176.004209383034	1
1	11810	1182.004209383034	1
1	11810	1182.004209383034	1
1	11872	1188.004209383034	1
1	11872	1188.004209383034	1
1	11936	1194.004209383034	1
1	11936	1194.004209383034	1
1	11998	1200.004209383034	1
1	11998	1200.004209383034	1
1	12058	1206.004209383034	1
1	12058	1206.004209383034	1
1	12122	1212.004209383034	1
1	12122	1212.004209383034	1
1	12181	1218.004209383034	1
1	12181	1218.004209383034	1
1	12248	1224.004209383034	1
1	12248	1224.004209383034	1
1	12308	1230.004209383034	1
1	12308	1230.004209383034	1
1	12367	1236.004209383034	1
1	12367	1236.004209383034	1
1	12434	1242.004209383034	1
1	12434	1242.004209383034	1
1	12495	1248.004209383034	1
1	12495	1248.004209383034	1
1	12558	1254.004209383034	1
1	12558	1254.004209383034	1
1	12616	1260.004209383034	1
1	12616	1260.004209383034	1
1	12679	1266.004209383034	1
1	12679	1266.004209383034	1
1	12742	1272.004209383034	1
1	12742	1272.004209383034	1
1	12799	1278.004209383034	1
1	12799	1278.004209383034	1
1	12867	1284.004209383034	1
1	12867	1284.004209383034	1
1	12929	1290.004209383034	1
1	12929	1290.004209383034	1
1	12990	1296.004209383034	1
1	12990	1296.004209383034	1
1	13051	1302.004209383034	1
1	13051	1302.004209383034	1
1	13114	1308.004209383034	1
1	13114	1308.004209383034	1
1	13179	1314.004209383034	1
1	13179	1314.004209383034	1
1	13237	1320.004209383034	1
1	13237	1320.004209383034	1
1	13300	1326.004209383034	1
1	13300	1326.004209383034	1
1	13363	1332.004209383034	1
1	13363	1332.004209383034	1
1	13425	1338.004209383034	1
1	13425	1338.004209383034	1
1	13490	1344.004209383034	1
1	13490	1344.004209383034	1
1	13550	1350.004209383034	1
1	13550	1350.004209383034	1
1	13612	1356.004209383034	1
1	13612	1356.004209383034	1
1	13673	1362.004209383034	1
1	13673	1362.004209383034	1
1	13737	1368.004209383034	1
1	13737	1368.004209383034	1
1	13796	1374.004209383034	1
1	13796	1374.004209383034	1
1	13856	1380.004209383034	1
1	13856	1380.004209383034	1
1	13921	1386.004209383034	1
1	13921	1386.004209383034	1
1	13984	1392.004209383034	1
1	13984	1392.004209383034	1
1	14044	1398.004209383034	1
1	14044	1398.004209383034	1
1	14106	1404.004209383034	1
1	14106	1404.004209383034	1
1	14171	1410.004209383034	1
1	14171	1410.004209383034	1
1	14232	1416.004209383034	1
1	14232	1416.004209383034	1
1	14291	1422.004209383034	1
1	14291	1422.004209383034	1
1	14356	1428.004209383034	1
1	14356	1428.004209383034	1
1	14420	1434.004209383034	1
1	14420	1434.004209383034	1
1	14474	1439	1
1	14474	1439	-1
1	14573	1448	-1
1	14573	1448	0
1	14589	1452.012826550167	0
1	14589	1452.012826550167	0
1	14643	1458.012826550167	0
1	14643	1458.012826550167	1
1	14703	1464.012826550167	1
1	14703	1464.012826550167	1
1	14766	1470.012826550167	1
1	14766	1470.012826550167	1
1	14825	1476.012826550167	1
1	14825	1476.012826550167	1
1	14891	1482.012826550167	1
1	14891	1482.012826550167	1
1	14952	1488.012826550167	1
1	14952	1488.012826550167	1
1	15013	1494.012826550167	1
1	15013	1494.012826550167	1
1	15075	1500.012826550167	1
1	15075	1500.012826550167	1
1	15134	1506.012826550167	1
1	15134	1506.012826550167	1
1	15200	1512.012826550167	1
1	15200	1512.012826550167	1
1	15258	1518.012826550167	1
1	15258	1518.012826550167	1
1	15322	1524.012826550167	1
1	15322	1524.012826550167	1
1	15387	1530.012826550167	1
1	15387	1530.012826550167	1
1	15448	1536.012826550167	1
1	15448	1536.012826550167	1
1	15510	1542.012826550167	1
1	15510	1542.012826550167	1
1	15570	1548.012826550167	1
1	15570	1548.012826550167	1
1	15637	1554.012826550167	1
1	15637	1554.012826550167	1
1	15695	1560.012826550167	1
1	15695	1560.012826550167	1
1	15755	1566.012826550167	1
1	15755	1566.012826550167	1
1	15822	1572.012826550167	1
1	15822	1572.012826550167	1
1	15884	1578.012826550167	1
1	15884	1578.012826550167	1
1	15948	1584.012826550167	1
1	15948	1584.012826550167	1
1	16005	1590.012826550167	1
1	16005	1590.012826550167	1
1	16070	1596.012826550167	1
1	16070	1596.012826550167	1
1	16134	1602.012826550167	1
1	16134	1602.012826550167	1
1	16190	1608.012826550167	1
1	16190	1608.012826550167	1
1	16255	1614.012826550167	1
1	16255	1614.012826550167	1
1	16314	1620.012826550167	1
1	16314	1620.012826550167	1
1	16378	1626.012826550167	1
1	16378	1626.012826550167	1
1	16439	1632.012826550167	1
1	16439	1632.012826550167	1
1	16503	1638.012826550167	1
1	16503	1638.012826550167	1
1	16567	1644.012826550167	1
1	16567	1644.012826550167	1
1	16627	1650.012826550167	1
1	16627	1650.012826550167	1
1	16683	1656.012826550167	1
1	16683	1656.012826550167	1
1	16734	1662.012826550167	1
1	16734	1662.012826550167	1
1	16792	1668.012826550167	1
1	16792	1668.012826550167	1
1	16838	1674.012826550167	1
1	16838	1674.012826550167	1
1	16881	1680.012826550167	1
1	16881	1680.012826550167	1
1	16933	1686.012826550167	1
1	16933	1686.012826550167	1
1	16994	1692.012826550167	1
1	16994	1692.012826550167	1
1	17061	1698.012826550167	1
1	17061	1698.012826550167	1
1	17120	1704.012826550167	1
1	17120	1704.012826550167	1
1	17180	1710.012826550167	1
1	17180	1710.012826550167	1
1	17245	1716.012826550167	1
1	17245	1716.012826550167	1
1	17303	1722.012826550167	1
1	17303	1722.012826550167	1
1	17369	1728.012826550167	1
1	17369	1728.012826550167	1
1	17427	1734.012826550167	1
1	17427	1734.012826550167	1
1	17492	1740.012826550167	1
1	17492	1740.012826550167	1
1	17551	1746.012826550167	1
1	17551	1746.012826550167	1
1	17614	1752.012826550167	1
1	17614	1752.012826550167	1
1	17679	1758.012826550167	1
1	17679	1758.012826550167	1
1	17739	1764.012826550167	1
1	17739	1764.012826550167	1
1	17804	1770.012826550167	1
1	17804	1770.012826550167	1
1	17862	1776.012826550167	1
1	17862	1776.012826550167	1
1	17927	1782.012826550167	1
1	17927	1782.012826550167	1
1	17991	1788.012826550167	1
1	17991	1788.012826550167	1
1	18051	1794.012826550167	1
1	18051	1794.012826550167	1
1	18115	1800.012826550167	1
1	18115	1800.012826550167	1
1	18172	1806.012826550167	1
1	18172	1806.012826550167	1
1	18236	1812.012826550167	1
1	18236	1812.012826550167	1
1	18300	1818.012826550167	1
1	18300	1818.012826550167	1
1	18362	1824.012826550167	1
1	18362	1824.012826550167	1
1	18425	1830.012826550167	1
1	18425	1830.012826550167	1
1	18483	1836.012826550167	1
1	18483	1836.012826550167	1
1	18548	1842.012826550167	1
1	18548	1842.012826550167	1
1	18608	1848.012826550167	1
1	18608	1848.012826550167	1
1	18669	1854.012826550167	1
1	18669	1854.012826550167	1
1	18733	1860.012826550167	1
1	18733	1860.012826550167	1
1	18793	1866.012826550167	1
1	18793	1866.012826550167	1
1	18859	1872.012826550167	1
1	18859	1872.012826550167	1
1	18904	1873	1
1	18904	1873	-1
1	18971	1882	-1
1	18971	1882	0
1	18978	1884.012826550167	0
1	18978	1884.012826550167	0
1	19028	1890.012826550167	0
1	19028	1890.012826550167	1
1	19089	1896.012826550167	1
1	19089	1896.012826550167	1
1	19155	1902.012826550167	1
1	19155	1902.012826550167	1
1	19215	1908.012826550167	1
1	19215	1908.012826550167	1
1	19281	1914.012826550167	1
1	19281	1914.012826550167	1
1	19339	1920.012826550167	1
1	19339	1920.012826550167	1
1	19401	1926.012826550167	1
1	19401	1926.012826550167	1
1	19464	1932.012826550167	1
1	19464	1932.012826550167	1
1	19527	1938.012826550167	1
1	19527	1938.012826550167	1
1	19592	1944.012826550167	1
1	19592	1944.012826550167	1
1	19648	1950.012826550167	1
1	19648	1950.012826550167	1
1	19709	1956.012826550167	1
1	19709	1956.012826550167	1
1	19772	1962.012826550167	1
1	19772	1962.012826550167	1
1	19826	1968.012826550167	1
1	19826	1968.012826550167	1
1	19882	1974.012826550167	1
1	19882	1974.012826550167	1
1	19929	1980.012826550167	1
1	19929	1980.012826550167	1
1	19986	1986.012826550167	1
1	19986	1986.012826550167	1
1	20046	1992.012826550167	1
1	20046	1992.012826550167	1
1	20107	1998.012826550167	1
1	20107	1998.012826550167	1
1	20164	2002	1
1	20164	2002	-1
1	20171	2004	-1
1	20171	2004	0
1	20177	2004.034720089936	0
1	20177	2004.034720089936	0
1	20230	2010.034720089936	0
1	20230	2010.034720089936	1
1	20295	2016.034720089936	1
1	20295	2016.034720089936	1
1	20353	2022.034720089936	1
1	20353	2022.034720089936	1
1	20419	2028.034720089936	1
1	20419	2028.034720089936	1
1	20480	2034.034720089936	1
1	20480	2034.034720089936	1
1	20541	2040.034720089936	1
1	20541	2040.034720089936	1
1	20604	2046.034720089936	1
1	20604	2046.034720089936	1
1	20665	2052.034720089936	1
1	20665	2052.034720089936	1
1	20734	2058.034720089936	1
1	20734	2058.034720089936	1
1	20784	2064.034720089936	1
1	20784	2064.034720089936	1
1	20834	2070.034720089936	1
1	20834	2070.034720089936	1
1	20889	2076.034720089936	1
1	20889	2076.034720089936	1
1	20942	2082.034720089936	1
1	20942	2082.034720089936	1
1	20999	2088.034720089936	1
1	20999	2088.034720089936	1
1	21040	2089	1
1	21040	2089	-1
1	21054	2093	-1
1	21054	2093	0
1	21060	2094.034720089936	0
1	21060	2094.034720089936	0
1	21116	2100.034720089936	0
1	21116	2100.034720089936	1
1	21177	2106.034720089936	1
1	21177	2106.034720089936	1
1	21239	2112.034720089936	1
1	21239	2112.034720089936	1
1	21302	2118.034720089936	1
1	21302	2118.034720089936	1
1	21363	2124.034720089936	1
1	21363	2124.034720089936	1
1	21429	2130.034720089936	1
1	21429	2130.034720089936	1
1	21488	2136.034720089936	1
1	21488	2136.034720089936	1
1	21549	2142.034720089936	1
1	21549	2142.034720089936	1
1	21613	2148.034720089936	1
1	21613	2148.034720089936	1
1	21675	2154.034720089936	1
1	21675	2154.034720089936	1
1	21740	2160.034720089936	1
1	21740	2160.034720089936	1
1	21798	2166.034720089936	1
1	21798	2166.034720089936	1
1	21864	2172.034720089936	1
1	21864	2172.034720089936	1
1	21917	2178.034720089936	1
1	21917	2178.034720089936	1
1	21968	2184.034720089936	1
1	21968	2184.034720089936	1
1	22020	2190.034720089936	1
1	22020	2190.034720089936	1
1	22075	2196.034720089936	1
1	22075	2196.034720089936	1
1	22133	2202.034720089936	1
1	22133	2202.034720089936	1
1	22185	2208.034720089936	1
1	22185	2208.034720089936	1
1	22237	2214.034720089936	1
1	22237	2214.034720089936	1
1	22291	2220.034720089936	1
1	22291	2220.034720089936	1
1	22346	2226.034720089936	1
1	22346	2226.034720089936	1
1	22411	2232.034720089936	1
1	22411	2232.034720089936	1
1	22470	2238.034720089936	1
1	22470	2238.034720089936	1
1	22534	2244.034720089936	1
1	22534	2244.034720089936	1
1	22595	2250.034720089936	1
1	22595	2250.034720089936	1
1	22657	2256.034720089936	1
1	22657	2256.034720089936	1
1	22718	2262.034720089936	1
1	22718	2262.034720089936	1
1	22782	2268.034720089936	1
1	22782	2268.034720089936	1
1	22847	2274.034720089936	1
1	22847	2274.034720089936	1
1	22906	2280.034720089936	1
1	22906	2280.034720089936	1
1	22967	2286.034720089936	1
1	22967	2286.034720089936	1
1	23029	2292.034720089936	1
1	23029	2292.034720089936	1
1	23091	2298.034720089936	1
1	23091	2298.034720089936	1
1	23153	2304.034720089936	1
1	23153	2304.034720089936	1
1	23213	2310.034720089936	1
1	23213	2310.034720089936	1
1	23276	2316.034720089936	1
1	23276	2316.034720089936	1
1	23339	2322.034720089936	1
1	23339	2322.034720089936	1
1	23402	2328.034720089936	1
1	23402	2328.034720089936	1
1	23462	2334.034720089936	1
1	23462	2334.034720089936	1
1	23525	2340.034720089936	1
1	23525	2340.034720089936	1
1	23591	2346.034720089936	1
1	23591	2346.034720089936	1
1	23651	2352.034720089936	1
1	23651	2352.034720089936	1
1	23705	2358.034720089936	1
1	23705	2358.034720089936	1
1	23759	2364.034720089936	1
1	23759	2364.034720089936	1
1	23810	2370.034720089936	1
1	23810	2370.034720089936	1
1	23849	2373	1
1	23849	2373	-1
1	24020	2393	-1
1	24020	2393	0
1	24026	2394.034720089936	0
1	24026	2394.034720089936	0
1	24080	2400.034720089936	0
1	24080	2400.034720089936	1
1	24141	2406.034720089936	1
1	24141	2406.034720089936	1
1	24200	2412.034720089936	1
1	24200	2412.034720089936	1
1	24266	2418.034720089936	1
1	24266	2418.034720089936	1
1	24325	2424.034720089936	1
1	24325	2424.034720089936	1
1	24387	2430.034720089936	1
1	24387	2430.034720089936	1
1	24450	2436.034720089936	1
1	24450	2436.034720089936	1
1	24501	2442.034720089936	1
1	24501	2442.034720089936	1
1	24555	2448.034720089936	1
1	24555	2448.034720089936	1
1	24616	2454.034720089936	1
1	24616	2454.034720089936	1
1	24679	2460.034720089936	1
1	24679	2460.034720089936	1
1	24742	2466.034720089936	1
1	24742	2466.034720089936	1
1	24803	2472.034720089936	1
1	24803	2472.034720089936	1
1	24865	2478.034720089936	1
1	24865	2478.034720089936	1
1	24928	2484.034720089936	1
1	24928	2484.034720089936	1
1	24992	2490.034720089936	1
1	24992	2490.034720089936	1
1	25053	2496.034720089936	1
1	25053	2496.034720089936	1
1	25113	2502.034720089936	1
1	25113	2502.034720089936	1
1	25177	2508.034720089936	1
1	25177	2508.034720089936	1
1	25240	2514.034720089936	1
1	25240	2514.034720089936	1
1	25302	2520.034720089936	1
1	25302	2520.034720089936	1
1	25360	2526.034720089936	1
1	25360	2526.034720089936	1
1	25424	2532.034720089936	1
1	25424	2532.034720089936	1
1	25486	2538.034720089936	1
1	25486	2538.034720089936	1
1	25548	2544.034720089936	1
1	25548	2544.034720089936	1
1	25609	2550.034720089936	1
1	25609	2550.034720089936	1
1	25675	2556.034720089936	1
1	25675	2556.034720089936	1
1	25726	2562.034720089936	1
1	25726	2562.034720089936	1
1	25783	2568.034720089936	1
1	25783	2568.034720089936	1
1	25836	2574.034720089936	1
1	25836	2574.034720089936	1
1	25891	2580.034720089936	1
1	25891	2580.034720089936	1
1	25946	2586.034720089936	1
1	25946	2586.034720089936	1
1	25995	2592.034720089936	1
1	25995	2592.034720089936	1
1	26047	2598.034720089936	1
1	26047	2598.034720089936	1
1	26110	2604.034720089936	1
1	26110	2604.034720089936	1
1	26173	2610.034720089936	1
1	26173	2610.034720089936	1
1	26235	2616.034720089936	1
1	26235	2616.034720089936	1
1	26296	2622.034720089936	1
1	26296	2622.034720089936	1
1	26359	2628.034720089936	1
1	26359	2628.034720089936	1
1	26422	2634.034720089936	1
1	26422	2634.034720089936	1
1	26482	2640.034720089936	1
1	26482	2640.034720089936	1
1	26542	2646.034720089936	1
1	26542	2646.034720089936	1
1	26605	2652.034720089936	1
1	26605	2652.034720089936	1
1	26668	2658.034720089936	1
1	26668	2658.034720089936	1
1	26729	2664.034720089936	1
1	26729	2664.034720089936	1
1	26791	2670.034720089936	1
1	26791	2670.034720089936	1
1	26855	2676.034720089936	1
1	26855	2676.034720089936	1
1	26917	2682.034720089936	1
1	26917	2682.034720089936	1
1	26979	2688.034720089936	1
1	26979	2688.034720089936	1
1	27040	2694.034720089936	1
1	27040	2694.034720089936	1
1	27103	2700.034720089936	1
1	27103	2700.034720089936	1
1	27163	2706.034720089936	1
1	27163	2706.034720089936	1
1	27228	2712.034720089936	1
1	27228	2712.034720089936	1
1	27290	2718.034720089936	1
1	27290	2718.034720089936	1
1	27352	2724.034720089936	1
1	27352	2724.034720089936	1
1	27415	2730.034720089936	1
1	27415	2730.034720089936	1
1	27477	2736.034720089936	1
1	27477	2736.034720089936	1
1	27538	2742.034720089936	1
1	27538	2742.034720089936	1
1	27598	2748.034720089936	1
1	27598	2748.034720089936	1
1	27667	2754.034720089936	1
1	27667	2754.034720089936	1
1	27719	2760.034720089936	1
1	27719	2760.034720089936	1
1	27770	2766.034720089936	1
1	27770	2766.034720089936	1
1	27824	2772.034720089936	1
1	27824	2772.034720089936	1
1	27887	2778.034720089936	1
1	27887	2778.034720089936	1
1	27949	2784.034720089936	1
1	27949	2784.034720089936	1
1	28010	2790.034720089936	1
1	28010	2790.034720089936	1
1	28073	2796.034720089936	1
1	28073	2796.034720089936	1
1	28136	2802.034720089936	1
1	28136	2802.034720089936	1
1	28195	2808.034720089936	1
1	28195	2808.034720089936	1
1	28259	2814.034720089936	1
1	28259	2814.034720089936	1
1	28322	2820.034720089936	1
1	28322	2820.034720089936	1
1	28385	2826.034720089936	1
1	28385	2826.034720089936	1
1	28447	2832.034720089936	1
1	28447	2832.034720089936	1
1	28509	2838.034720089936	1
1	28509	2838.034720089936	1
1	28564	2844.034720089936	1
1	28564	2844.034720089936	1
1	28617	2850.034720089936	1
1	28617	2850.034720089936	1
1	28662	2856.034720089936	1
1	28662	2856.034720089936	1
1	28704	2862.034720089936	1
1	28704	2862.034720089936	1
2	0	0	0
2	8	6	0
2	8	6	1
2	73	12	1
2	73	12	1
2	135	18	1
2	135	18	1
2	195	24	1
2	195	24	1
2	244	30	1
2	244	30	1
2	305	36	1
2	305	36	1
2	364	42	1
2	364	42	1
2	424	48	1
2	424	48	1
2	488	54	1
2	488	54	1
2	552	60	1
2	552	60	1
2	606	66	1
2	606	66	1
2	666	72	1
2	666	72	1
2	730	78	1
2	730	78	1
2	790	84	1
2	790	84	1
2	852	90	1
2	852	90	1
2	919	96	1
2	919	96	1
2	979	102	1
2	979	102	1
2	1039	108	1
2	1039	108	1
2	1106	114	1
2	1106	114	1
2	1156	120	1
2	1156	120	1
2	1209	126	1
2	1209	126	1
2	1263	132	1
2	1263	132	1
2	1320	138	1
2	1320	138	1
2	1368	144	1
2	1368	144	1
2	1423	150	1
2	1423	150	1
2	1483	156	1
2	1483	156	1
2	1537	162	1
2	1537	162	1
2	1583	168	1
2	1583	168	1
2	1636	174	1
2	1636	174	1
2	1702	180	1
2	1702	180	1
2	1762	186	1
2	1762	186	1
2	1824	192	1
2	1824	192	1
2	1888	198	1
2	1888	198	1
2	1951	204	1
2	1951	204	1
2	2011	210	1
2	2011	210	1
2	2074	216	1
2	2074	216	1
2	2138	222	1
2	2138	222	1
2	2196	228	1
2	2196	228	1
2	2257	234	1
2	2257	234	1
2	2325	240	1
2	2325	240	1
2	2376	246	1
2	2376	246	1
2	2438	252	1
2	2438	252	1
2	2500	258	1
2	2500	258	1
2	2564	264	1
2	2564	264	1
2	2624	270	1
2	2624	270	1
2	2688	276	1
2	2688	276	1
2	2753	282	1
2	2753	282	1
2	2809	288	1
2	2809	288	1
2	2872	294	1
2	2872	294	1
2	2939	300	1
2	2939	300	1
2	3003	306	1
2	3003	306	1
2	3060	312	1
2	3060	312	1
2	3121	318	1
2	3121	318	1
2	3187	324	1
2	3187	324	1
2	3245	330	1
2	3245	330	1
2	3310	336	1
2	3310	336	1
2	3373	342	1
2	3373	342	1
2	3432	348	1
2	3432	348	1
2	3493	354	1
2	3493	354	1
2	3555	360	1
2	3555	360	1
2	3621	366	1
2	3621	366	1
2	3678	372	1
2	3678	372	1
2	3742	378	1
2	3742	378	1
2	3806	384	1
2	3806	384	1
2	3866	390	1
2	3866	390	1
2	3930	396	1
2	3930	396	1
2	3992	402	1
2	3992	402	1
2	4055	408	1
2	4055	408	1
2	4114	414	1
2	4114	414	1
2	4178	420	1
2	4178	420	1
2	4245	426	1
2	4245	426	1
2	4301	432	1
2	4301	432	1
2	4363	438	1
2	4363	438	1
2	4426	444	1
2	4426	444	1
2	4493	450	1
2	4493	450	1
2	4551	456	1
2	4551	456	1
2	4610	462	1
2	4610	462	1
2	4675	468	1
2	4675	468	1
2	4732	474	1
2	4732	474	1
2	4797	480	1
2	4797	480	1
2	4863	486	1
2	4863	486	1
2	4922	492	1
2	4922	492	1
2	4984	498	1
2	4984	498	1
2	5045	504	1
2	5045	504	1
2	5111	510	1
2	5111	510	1
2	5169	516	1
2	5169	516	1
2	5236	522	1
2	5236	522	1
2	5289	528	1
2	5289	528	1
2	5341	534	1
2	5341	534	1
2	5394	540	1
2	5394	540	1
2	5459	546	1
2	5459	546	1
2	5523	552	1
2	5523	552	1
2	5579	558	1
2	5579	558	1
2	5644	564	1
2	5644	564	1
2	5709	570	1
2	5709	570	1
2	5754	576	1
2	5754	576	1
2	5809	582	1
2	5809	582	1
2	5871	588	1
2	5871	588	1
2	5935	594	1
2	5935	594	1
2	5993	600	1
2	5993	600	1
2	6057	606	1
2	6057	606	1
2	6124	612	1
2	6124	612	1
2	6180	618	1
2	6180	618	1
2	6243	624	1
2	6243	624	1
2	6304	630	1
2	6304	630	1
2	6369	636	1
2	6369	636	1
2	6433	642	1
2	6433	642	1
2	6493	648	1
2	6493	648	1
2	6557	654	1
2	6557	654	1
2	6613	660	1
2	6613	660	1
2	6681	666	1
2	6681	666	1
2	6746	672	1
2	6746	672	1
2	6804	678	1
2	6804	678	1
2	6866	684	1
2	6866	684	1
2	6925	690	1
2	6925	690	1
2	6991	696	1
2	6991	696	1
2	7048	702	1
2	7048	702	1
2	7113	708	1
2	7113	708	1
2	7178	714	1
2	7178	714	1
2	7237	720	1
2	7237	720	1
2	7294	726	1
2	7294	726	1
2	7347	732	1
2	7347	732	1
2	7400	738	1
2	7400	738	1
2	7459	744	1
2	7459	744	1
2	7522	750	1
2	7522	750	1
2	7590	756	1
2	7590	756	1
2	7647	762	1
2	7647	762	1
2	7710	768	1
2	7710	768	1
2	7771	774	1
2	7771	774	1
2	7834	780	1
2	7834	780	1
2	7899	786	1
2	7899	786	1
2	7960	792	1
2	7960	792	1
2	8024	798	1
2	8024	798	1
2	8080	804	1
2	8080	804	1
2	8138	810	1
2	8138	810	1
2	8192	816	1
2	8192	816	1
2	8246	822	1
2	8246	822	1
2	8300	828	1
2	8300	828	1
2	8354	834	1
2	8354	834	1
2	8409	840	1
2	8409	840	1
2	8455	846	1
2	8455	846	1
2	8513	852	1
2	8513	852	1
2	8570	858	1
2	8570	858	1
2	8614	864	1
2	8614	864	1
2	8669	870	1
2	8669	870	1
2	8671	870	1
2	8671	870	-1
2	8767	877	-1
2	8767	877	0
2	8789	882.008617167133	0
2	8789	882.008617167133	0
2	8837	888.008617167133	0
2	8837	888.008617167133	1
2	8903	894.008617167133	1
2	8903	894.008617167133	1
2	8969	900.008617167133	1
2	8969	900.008617167133	1
2	9026	906.008617167133	1
2	9026	906.008617167133	1
2	9090	912.008617167133	1
2	9090	912.008617167133	1
2	9150	918.008617167133	1
2	9150	918.008617167133	1
2	9212	924.008617167133	1
2	9212	924.008617167133	1
2	9274	930.008617167133	1
2	9274	930.008617167133	1
2	9336	936.008617167133	1
2	9336	936.008617167133	1
2	9401	942.008617167133	1
2	9401	942.008617167133	1
2	9457	948.008617167133	1
2	9457	948.008617167133	1
2	9524	954.008617167133	1
2	9524	954.008617167133	1
2	9585	960.008617167133	1
2	9585	960.008617167133	1
2	9642	966.008617167133	1
2	9642	966.008617167133	1
2	9697	972.008617167133	1
2	9697	972.008617167133	1
2	9759	978.008617167133	1
2	9759	978.008617167133	1
2	9821	984.008617167133	1
2	9821	984.008617167133	1
2	9879	990.008617167133	1
2	9879	990.008617167133	1
2	9945	996.008617167133	1
2	9945	996.008617167133	1
2	10009	1002.008617167133	1
2	10009	1002.008617167133	1
2	10069	1008.008617167133	1
2	10069	1008.008617167133	1
2	10132	1014.008617167133	1
2	10132	1014.008617167133	1
2	10194	1020.008617167133	1
2	10194	1020.008617167133	1
2	10257	1026.008617167133	1
2	10257	1026.008617167133	1
2	10315	1032.008617167133	1
2	10315	1032.008617167133	1
2	10377	1038.008617167133	1
2	10377	1038.008617167133	1
2	10444	1044.008617167133	1
2	10444	1044.008617167133	1
2	10501	1050.008617167133	1
2	10501	1050.008617167133	1
2	10564	1056.008617167133	1
2	10564	1056.008617167133	1
2	10627	1062.008617167133	1
2	10627	1062.008617167133	1
2	10689	1068.008617167133	1
2	10689	1068.008617167133	1
2	10750	1074.008617167133	1
2	10750	1074.008617167133	1
2	10813	1080.008617167133	1
2	10813	1080.008617167133	1
2	10877	1086.008617167133	1
2	10877	1086.008617167133	1
2	10936	1092.008617167133	1
2	10936	1092.008617167133	1
2	11001	1098.008617167133	1
2	11001	1098.008617167133	1
2	11064	1104.008617167133	1
2	11064	1104.008617167133	1
2	11124	1110.008617167133	1
2	11124	1110.008617167133	1
2	11186	1116.008617167133	1
2	11186	1116.008617167133	1
2	11251	1122.008617167133	1
2	11251	1122.008617167133	1
2	11312	1128.008617167133	1
2	11312	1128.008617167133	1
2	11371	1134.008617167133	1
2	11371	1134.008617167133	1
2	11440	1140.008617167133	1
2	11440	1140.008617167133	1
2	11493	1146.008617167133	1
2	11493	1146.008617167133	1
2	11546	1152.008617167133	1
2	11546	1152.008617167133	1
2	11598	1158.008617167133	1
2	11598	1158.008617167133	1
2	11654	1164.008617167133	1
2	11654	1164.008617167133	1
2	11708	1170.008617167133	1
2	11708	1170.008617167133	1
2	11756	1176.008617167133	1
2	11756	1176.008617167133	1
2	11812	1182.008617167133	1
2	11812	1182.008617167133	1
2	11874	1188.008617167133	1
2	11874	1188.008617167133	1
2	11938	1194.008617167133	1
2	11938	1194.008617167133	1
2	12000	1200.008617167133	1
2	12000	1200.008617167133	1
2	12060	1206.008617167133	1
2	12060	1206.008617167133	1
2	12124	1212.008617167133	1
2	12124	1212.008617167133	1
2	12183	1218.008617167133	1
2	12183	1218.008617167133	1
2	12250	1224.008617167133	1
2	12250	1224.008617167133	1
2	12310	1230.008617167133	1
2	12310	1230.008617167133	1
2	12369	1236.008617167133	1
2	12369	1236.008617167133	1
2	12436	1242.008617167133	1
2	12436	1242.008617167133	1
2	12497	1248.008617167133	1
2	12497	1248.008617167133	1
2	12560	1254.008617167133	1
2	12560	1254.008617167133	1
2	12618	1260.008617167133	1
2	12618	1260.008617167133	1
2	12681	1266.008617167133	1
2	12681	1266.008617167133	1
2	12744	1272.008617167133	1
2	12744	1272.008617167133	1
2	12801	1278.008617167133	1
2	12801	1278.008617167133	1
2	12869	1284.008617167133	1
2	12869	1284.008617167133	1
2	12931	1290.008617167133	1
2	12931	1290.008617167133	1
2	12992	1296.008617167133	1
2	12992	1296.008617167133	1
2	13053	1302.008617167133	1
2	13053	1302.008617167133	1
2	13116	1308.008617167133	1
2	13116	1308.008617167133	1
2	13181	1314.008617167133	1
2	13181	1314.008617167133	1
2	13239	1320.008617167133	1
2	13239	1320.008617167133	1
2	13302	1326.008617167133	1
2	13302	1326.008617167133	1
2	13365	1332.008617167133	1
2	13365	1332.008617167133	1
2	13427	1338.008617167133	1
2	13427	1338.008617167133	1
2	13492	1344.008617167133	1
2	13492	1344.008617167133	1
2	13552	1350.008617167133	1
2	13552	1350.008617167133	1
2	13614	1356.008617167133	1
2	13614	1356.008617167133	1
2	13675	1362.008617167133	1
2	13675	1362.008617167133	1
2	13739	1368.008617167133	1
2	13739	1368.008617167133	1
2	13798	1374.008617167133	1
2	13798	1374.008617167133	1
2	13858	1380.008617167133	1
2	13858	1380.008617167133	1
2	13923	1386.008617167133	1
2	13923	1386.008617167133	1
2	13986	1392.008617167133	1
2	13986	1392.008617167133	1
2	14046	1398.008617167133	1
2	14046	1398.008617167133	1
2	14108	1404.008617167133	1
2	14108	1404.008617167133	1
2	14173	1410.008617167133	1
2	14173	1410.008617167133	1
2	14234	1416.008617167133	1
2	14234	1416.008617167133	1
2	14293	1422.008617167133	1
2	14293	1422.008617167133	1
2	14358	1428.008617167133	1
2	14358	1428.008617167133	1
2	14422	1434.008617167133	1
2	14422	1434.008617167133	1
2	14484	1440.008617167133	1
2	14484	1440.008617167133	1
2	14533	1446.008617167133	1
2	14533	1446.008617167133	1
2	14588	1452.008617167133	1
2	14588	1452.008617167133	1
2	14642	1458.008617167133	1
2	14642	1458.008617167133	1
2	14702	1464.008617167133	1
2	14702	1464.008617167133	1
2	14765	1470.008617167133	1
2	14765	1470.008617167133	1
2	14824	1476.008617167133	1
2	14824	1476.008617167133	1
2	14890	1482.008617167133	1
2	14890	1482.008617167133	1
2	14951	1488.008617167133	1
2	14951	1488.008617167133	1
2	15012	1494.008617167133	1
2	15012	1494.008617167133	1
2	15074	1500.008617167133	1
2	15074	1500.008617167133	1
2	15133	1506.008617167133	1
2	15133	1506.008617167133	1
2	15199	1512.008617167133	1
2	15199	1512.008617167133	1
2	15257	1518.008617167133	1
2	15257	1518.008617167133	1
2	15321	1524.008617167133	1
2	15321	1524.008617167133	1
2	15386	1530.008617167133	1
2	15386	1530.008617167133	1
2	15447	1536.008617167133	1
2	15447	1536.008617167133	1
2	15509	1542.008617167133	1
2	15509	1542.008617167133	1
2	15569	1548.008617167133	1
2	15569	1548.008617167133	1
2	15636	1554.008617167133	1
2	15636	1554.008617167133	1
2	15694	1560.008617167133	1
2	15694	1560.008617167133	1
2	15754	1566.008617167133	1
2	15754	1566.008617167133	1
2	15821	1572.008617167133	1
2	15821	1572.008617167133	1
2	15883	1578.008617167133	1
2	15883	1578.008617167133	1
2	15947	1584.008617167133	1
2	15947	1584.008617167133	1
2	16004	1590.008617167133	1
2	16004	1590.008617167133	1
2	16069	1596.008617167133	1
2	16069	1596.008617167133	1
2	16133	1602.008617167133	1
2	16133	1602.008617167133	1
2	16189	1608.008617167133	1
2	16189	1608.008617167133	1
2	16254	1614.008617167133	1
2	16254	1614.008617167133	1
2	16313	1620.008617167133	1
2	16313	1620.008617167133	1
2	16377	1626.008617167133	1
2	16377	1626.008617167133	1
2	16438	1632.008617167133	1
2	16438	1632.008617167133	1
2	16502	1638.008617167133	1
2	16502	1638.008617167133	1
2	16566	1644.008617167133	1
2	16566	1644.008617167133	1
2	16626	1650.008617167133	1
2	16626	1650.008617167133	1
2	16682	1656.008617167133	1
2	16682	1656.008617167133	1
2	16733	1662.008617167133	1
2	16733	1662.008617167133	1
2	16791	1668.008617167133	1
2	16791	1668.008617167133	1
2	16837	1674.008617167133	1
2	16837	1674.008617167133	1
2	16880	1680.008617167133	1
2	16880	1680.008617167133	1
2	16932	1686.008617167133	1
2	16932	1686.008617167133	1
2	16993	1692.008617167133	1
2	16993	1692.008617167133	1
2	17060	1698.008617167133	1
2	17060	1698.008617167133	1
2	17119	1704.008617167133	1
2	17119	1704.008617167133	1
2	17179	1710.008617167133	1
2	17179	1710.008617167133	1
2	17244	1716.008617167133	1
2	17244	1716.008617167133	1
2	17302	1722.008617167133	1
2	17302	1722.008617167133	1
2	17368	1728.008617167133	1
2	17368	1728.008617167133	1
2	17426	1734.008617167133	1
2	17426	1734.008617167133	1
2	17491	1740.008617167133	1
2	17491	1740.008617167133	1
2	17550	1746.008617167133	1
2	17550	1746.008617167133	1
2	17613	1752.008617167133	1
2	17613	1752.008617167133	1
2	17678	1758.008617167133	1
2	17678	1758.008617167133	1
2	17738	1764.008617167133	1
2	17738	1764.008617167133	1
2	17803	1770.008617167133	1
2	17803	1770.008617167133	1
2	17861	1776.008617167133	1
2	17861	1776.008617167133	1
2	17926	1782.008617167133	1
2	17926	1782.008617167133	1
2	17990	1788.008617167133	1
2	17990	1788.008617167133	1
2	18050	1794.008617167133	1
2	18050	1794.008617167133	1
2	18114	1800.008617167133	1
2	18114	1800.008617167133	1
2	18171	1806.008617167133	1
2	18171	1806.008617167133	1
2	18235	1812.008617167133	1
2	18235	1812.008617167133	1
2	18299	1818.008617167133	1
2	18299	1818.008617167133	1
2	18361	1824.008617167133	1
2	18361	1824.008617167133	1
2	18424	1830.008617167133	1
2	18424	1830.008617167133	1
2	18482	1836.008617167133	1
2	18482	1836.008617167133	1
2	18547	1842.008617167133	1
2	18547	1842.008617167133	1
2	18607	1848.008617167133	1
2	18607	1848.008617167133	1
2	18668	1854.008617167133	1
2	18668	1854.008617167133	1
2	18732	1860.008617167133	1
2	18732	1860.008617167133	1
2	18792	1866.008617167133	1
2	18792	1866.008617167133	1
2	18858	1872.008617167133	1
2	18858	1872.008617167133	1
2	18921	1878.008617167133	1
2	18921	1878.008617167133	1
2	18977	1884.008617167133	1
2	18977	1884.008617167133	1
2	19027	1890.008617167133	1
2	19027	1890.008617167133	1
2	19088	1896.008617167133	1
2	19088	1896.008617167133	1
2	19154	1902.008617167133	1
2	19154	1902.008617167133	1
2	19214	1908.008617167133	1
2	19214	1908.008617167133	1
2	19280	1914.008617167133	1
2	19280	1914.008617167133	1
2	19338	1920.008617167133	1
2	19338	1920.008617167133	1
2	19400	1926.008617167133	1
2	19400	1926.008617167133	1
2	19463	1932.008617167133	1
2	19463	1932.008617167133	1
2	19526	1938.008617167133	1
2	19526	1938.008617167133	1
2	19591	1944.008617167133	1
2	19591	1944.008617167133	1
2	19647	1950.008617167133	1
2	19647	1950.008617167133	1
2	19708	1956.008617167133	1
2	19708	1956.008617167133	1
2	19769	1962	1
2	19769	1962	-1
2	19920	1976	-1
2	19920	1976	0
2	19933	1980.030510706902	0
2	19933	1980.030510706902	0
2	19990	1986.030510706902	0
2	19990	1986.030510706902	1
2	20050	1992.030510706902	1
2	20050	1992.030510706902	1
2	20111	1998.030510706902	1
2	20111	1998.030510706902	1
2	20175	2004.030510706902	1
2	20175	2004.030510706902	1
2	20228	2010.030510706902	1
2	20228	2010.030510706902	1
2	20293	2016.030510706902	1
2	20293	2016.030510706902	1
2	20351	2022.030510706902	1
2	20351	2022.030510706902	1
2	20417	2028.030510706902	1
2	20417	2028.030510706902	1
2	20478	2034.030510706902	1
2	20478	2034.030510706902	1
2	20539	2040.030510706902	1
2	20539	2040.030510706902	1
2	20602	2046.030510706902	1
2	20602	2046.030510706902	1
2	20663	2052.030510706902	1
2	20663	2052.030510706902	1
2	20732	2058.030510706902	1
2	20732	2058.030510706902	1
2	20782	2064.030510706902	1
2	20782	2064.030510706902	1
2	20832	2070.030510706902	1
2	20832	2070.030510706902	1
2	20887	2076.030510706902	1
2	20887	2076.030510706902	1
2	20940	2082.030510706902	1
2	20940	2082.030510706902	1
2	20997	2088.030510706902	1
2	20997	2088.030510706902	1
2	21058	2094.030510706902	1
2	21058	2094.030510706902	1
2	21114	2100.030510706902	1
2	21114	2100.030510706902	1
2	21175	2106.030510706902	1
2	21175	2106.030510706902	1
2	21237	2112.030510706902	1
2	21237	2112.030510706902	1
2	21300	2118.030510706902	1
2	21300	2118.030510706902	1
2	21361	2124.030510706902	1
2	21361	2124.030510706902	1
2	21427	2130.030510706902	1
2	21427	2130.030510706902	1
2	21486	2136.030510706902	1
2	21486	2136.030510706902	1
2	21547	2142.030510706902	1
2	21547	2142.030510706902	1
2	21611	2148.030510706902	1
2	21611	2148.030510706902	1
2	21673	2154.030510706902	1
2	21673	2154.030510706902	1
2	21738	2160.030510706902	1
2	21738	2160.030510706902	1
2	21796	2166.030510706902	1
2	21796	2166.030510706902	1
2	21862	2172.030510706902	1
2	21862	2172.030510706902	1
2	21915	2178.030510706902	1
2	21915	2178.030510706902	1
2	21966	2184.030510706902	1
2	21966	2184.030510706902	1
2	22018	2190.030510706902	1
2	22018	2190.030510706902	1
2	22073	2196.030510706902	1
2	22073	2196.030510706902	1
2	22131	2202.030510706902	1
2	22131	2202.030510706902	1
2	22183	2208.030510706902	1
2	22183	2208.030510706902	1
2	22235	2214.030510706902	1
2	22235	2214.030510706902	1
2	22289	2220.030510706902	1
2	22289	2220.030510706902	1
2	22344	2226.030510706902	1
2	22344	2226.030510706902	1
2	22409	2232.030510706902	1
2	22409	2232.030510706902	1
2	22468	2238.030510706902	1
2	22468	2238.030510706902	1
2	22532	2244.030510706902	1
2	22532	2244.030510706902	1
2	22593	2250.030510706902	1
2	22593	2250.030510706902	1
2	22655	2256.030510706902	1
2	22655	2256.030510706902	1
2	22716	2262.030510706902	1
2	22716	2262.030510706902	1
2	22780	2268.030510706902	1
2	22780	2268.030510706902	1
2	22845	2274.030510706902	1
2	22845	2274.030510706902	1
2	22904	2280.030510706902	1
2	22904	2280.030510706902	1
2	22965	2286.030510706902	1
2	22965	2286.030510706902	1
2	23027	2292.030510706902	1
2	23027	2292.030510706902	1
2	23089	2298.030510706902	1
2	23089	2298.030510706902	1
2	23151	2304.030510706902	1
2	23151	2304.030510706902	1
2	23211	2310.030510706902	1
2	23211	2310.030510706902	1
2	23274	2316.030510706902	1
2	23274	2316.030510706902	1
2	23337	2322.030510706902	1
2	23337	2322.030510706902	1
2	23400	2328.030510706902	1
2	23400	2328.030510706902	1
2	23460	2334.030510706902	1
2	23460	2334.030510706902	1
2	23523	2340.030510706902	1
2	23523	2340.030510706902	1
2	23589	2346.030510706902	1
2	23589	2346.030510706902	1
2	23650	2352.030510706902	1
2	23650	2352.030510706902	1
2	23704	2358.030510706902	1
2	23704	2358.030510706902	1
2	23758	2364.030510706902	1
2	23758	2364.030510706902	1
2	23809	2370.030510706902	1
2	23809	2370.030510706902	1
2	23865	2376.030510706902	1
2	23865	2376.030510706902	1
2	23917	2382.030510706902	1
2	23917	2382.030510706902	1
2	23974	2388.030510706902	1
2	23974	2388.030510706902	1
2	24025	2394.030510706902	1
2	24025	2394.030510706902	1
2	24079	2400.030510706902	1
2	24079	2400.030510706902	1
2	24140	2406.030510706902	1
2	24140	2406.030510706902	1
2	24199	2412.030510706902	1
2	24199	2412.030510706902	1
2	24265	2418.030510706902	1
2	24265	2418.030510706902	1
2	24324	2424.030510706902	1
2	24324	2424.030510706902	1
2	24386	2430.030510706902	1
2	24386	2430.030510706902	1
2	24449	2436.030510706902	1
2	24449	2436.030510706902	1
2	24500	2442.030510706902	1
2	24500	2442.030510706902	1
2	24554	2448.030510706902	1
2	24554	2448.030510706902	1
2	24615	2454.030510706902	1
2	24615	2454.030510706902	1
2	24678	2460.030510706902	1
2	24678	2460.030510706902	1
2	24741	2466.030510706902	1
2	24741	2466.030510706902	1
2	24802	2472.030510706902	1
2	24802	2472.030510706902	1
2	24864	2478.030510706902	1
2	24864	2478.030510706902	1
2	24927	2484.030510706902	1
2	24927	2484.030510706902	1
2	24991	2490.030510706902	1
2	24991	2490.030510706902	1
2	25052	2496.030510706902	1
2	25052	2496.030510706902	1
2	25112	2502.030510706902	1
2	25112	2502.030510706902	1
2	25176	2508.030510706902	1
2	25176	2508.030510706902	1
2	25239	2514.030510706902	1
2	25239	2514.030510706902	1
2	25301	2520.030510706902	1
2	25301	2520.030510706902	1
2	25359	2526.030510706902	1
2	25359	2526.030510706902	1
2	25423	2532.030510706902	1
2	25423	2532.030510706902	1
2	25485	2538.030510706902	1
2	25485	2538.030510706902	1
2	25547	2544.030510706902	1
2	25547	2544.030510706902	1
2	25608	2550.030510706902	1
2	25608	2550.030510706902	1
2	25674	2556.030510706902	1
2	25674	2556.030510706902	1
2	25725	2562.030510706902	1
2	25725	2562.030510706902	1
2	25782	2568.030510706902	1
2	25782	2568.030510706902	1
2	25835	2574.030510706902	1
2	25835	2574.030510706902	1
2	25890	2580.030510706902	1
2	25890	2580.030510706902	1
2	25945	2586.030510706902	1
2	25945	2586.030510706902	1
2	25994	2592.030510706902	1
2	25994	2592.030510706902	1
2	26046	2598.030510706902	1
2	26046	2598.030510706902	1
2	26109	2604.030510706902	1
2	26109	2604.030510706902	1
2	26172	2610.030510706902	1
2	26172	2610.030510706902	1
2	26234	2616.030510706902	1
2	26234	2616.030510706902	1
2	26295	2622.030510706902	1
2	26295	2622.030510706902	1
2	26358	2628.030510706902	1
2	26358	2628.030510706902	1
2	26421	2634.030510706902	1
2	26421	2634.030510706902	1
2	26480	2640.030510706902	1
2	26480	2640.030510706902	1
2	26541	2646.030510706902	1
2	26541	2646.030510706902	1
2	26604	2652.030510706902	1
2	26604	2652.030510706902	1
2	26667	2658.030510706902	1
2	26667	2658.030510706902	1
2	26728	2664.030510706902	1
2	26728	2664.030510706902	1
2	26790	2670.030510706902	1
2	26790	2670.030510706902	1
2	26853	2676.030510706902	1
2	26853	2676.030510706902	1
2	26916	2682.030510706902	1
2	26916	2682.030510706902	1
2	26978	2688.030510706902	1
2	26978	2688.030510706902	1
2	27039	2694.030510706902	1
2	27039	2694.030510706902	1
2	27102	2700.030510706902	1
2	27102	2700.030510706902	1
2	27162	2706.030510706902	1
2	27162	2706.030510706902	1
2	27227	2712.030510706902	1
2	27227	2712.030510706902	1
2	27289	2718.030510706902	1
2	27289	2718.030510706902	1
2	27351	2724.030510706902	1
2	27351	2724.030510706902	1
2	27414	2730.030510706902	1
2	27414	2730.030510706902	1
2	27476	2736.030510706902	1
2	27476	2736.030510706902	1
2	27537	2742.030510706902	1
2	27537	2742.030510706902	1
2	27597	2748.030510706902	1
2	27597	2748.030510706902	1
2	27666	2754.030510706902	1
2	27666	2754.030510706902	1
2	27718	2760.030510706902	1
2	27718	2760.030510706902	1
2	27769	2766.030510706902	1
2	27769	2766.030510706902	1
2	27823	2772.030510706902	1
2	27823	2772.030510706902	1
2	27886	2778.030510706902	1
2	27886	2778.030510706902	1
2	27948	2784.030510706902	1
2	27948	2784.030510706902	1
2	28009	2790.030510706902	1
2	28009	2790.030510706902	1
2	28072	2796.030510706902	1
2	28072	2796.030510706902	1
2	28135	2802.030510706902	1
2	28135	2802.030510706902	1
2	28194	2808.030510706902	1
2	28194	2808.030510706902	1
2	28258	2814.030510706902	1
2	28258	2814.030510706902	1
2	28321	2820.030510706902	1
2	28321	2820.030510706902	1
2	28384	2826.030510706902	1
2	28384	2826.030510706902	1
2	28446	2832.030510706902	1
2	28446	2832.030510706902	1
2	28508	2838.030510706902	1
2	28508	2838.030510706902	1
2	28563	2844.030510706902	1
2	28563	2844.030510706902	1
2	28616	2850.030510706902	1
2	28616	2850.030510706902	1
2	28661	2856.030510706902	1
2	28661	2856.030510706902	1
2	28703	2862.030510706902	1
2	28703	2862.030510706902	1
3	0	0	0
3	9	6	0
3	9	6	1
3	74	12	1
3	74	12	1
3	136	18	1
3	136	18	1
3	196	24	1
3	196	24	1
3	245	30	1
3	245	30	1
3	306	36	1
3	306	36	1
3	365	42	1
3	365	42	1
3	425	48	1
3	425	48	1
3	489	54	1
3	489	54	1
3	553	60	1
3	553	60	1
3	607	66	1
3	607	66	1
3	667	72	1
3	667	72	1
3	731	78	1
3	731	78	1
3	791	84	1
3	791	84	1
3	853	90	1
3	853	90	1
3	920	96	1
3	920	96	1
3	980	102	1
3	980	102	1
3	1040	108	1
3	1040	108	1
3	1107	114	1
3	1107	114	1
3	1157	120	1
3	1157	120	1
3	1210	126	1
3	1210	126	1
3	1264	132	1
3	1264	132	1
3	1321	138	1
3	1321	138	1
3	1369	144	1
3	1369	144	1
3	1424	150	1
3	1424	150	1
3	1484	156	1
3	1484	156	1
3	1538	162	1
3	1538	162	1
3	1584	168	1
3	1584	168	1
3	1637	174	1
3	1637	174	1
3	1703	180	1
3	1703	180	1
3	1763	186	1
3	1763	186	1
3	1825	192	1
3	1825	192	1
3	1889	198	1
3	1889	198	1
3	1952	204	1
3	1952	204	1
3	2012	210	1
3	2012	210	1
3	2075	216	1
3	2075	216	1
3	2139	222	1
3	2139	222	1
3	2197	228	1
3	2197	228	1
3	2258	234	1
3	2258	234	1
3	2326	240	1
3	2326	240	1
3	2377	246	1
3	2377	246	1
3	2439	252	1
3	2439	252	1
3	2501	258	1
3	2501	258	1
3	2565	264	1
3	2565	264	1
3	2625	270	1
3	2625	270	1
3	2689	276	1
3	2689	276	1
3	2754	282	1
3	2754	282	1
3	2810	288	1
3	2810	288	1
3	2873	294	1
3	2873	294	1
3	2940	300	1
3	2940	300	1
3	3004	306	1
3	3004	306	1
3	3061	312	1
3	3061	312	1
3	3122	318	1
3	3122	318	1
3	3188	324	1
3	3188	324	1
3	3246	330	1
3	3246	330	1
3	3311	336	1
3	3311	336	1
3	3374	342	1
3	3374	342	1
3	3433	348	1
3	3433	348	1
3	3494	354	1
3	3494	354	1
3	3556	360	1
3	3556	360	1
3	3622	366	1
3	3622	366	1
3	3679	372	1
3	3679	372	1
3	3743	378	1
3	3743	378	1
3	3807	384	1
3	3807	384	1
3	3867	390	1
3	3867	390	1
3	3931	396	1
3	3931	396	1
3	3993	402	1
3	3993	402	1
3	4056	408	1
3	4056	408	1
3	4115	414	1
3	4115	414	1
3	4179	420	1
3	4179	420	1
3	4246	426	1
3	4246	426	1
3	4302	432	1
3	4302	432	1
3	4364	438	1
3	4364	438	1
3	4427	444	1
3	4427	444	1
3	4494	450	1
3	4494	450	1
3	4552	456	1
3	4552	456	1
3	4611	462	1
3	4611	462	1
3	4676	468	1
3	4676	468	1
3	4733	474	1
3	4733	474	1
3	4798	480	1
3	4798	480	1
3	4864	486	1
3	4864	486	1
3	4923	492	1
3	4923	492	1
3	4985	498	1
3	4985	498	1
3	5046	504	1
3	5046	504	1
3	5112	510	1
3	5112	510	1
3	5170	516	1
3	5170	516	1
3	5237	522	1
3	5237	522	1
3	5290	528	1
3	5290	528	1
3	5342	534	1
3	5342	534	1
3	5395	540	1
3	5395	540	1
3	5460	546	1
3	5460	546	1
3	5524	552	1
3	5524	552	1
3	5580	558	1
3	5580	558	1
3	5645	564	1
3	5645	564	1
3	5710	570	1
3	5710	570	1
3	5755	576	1
3	5755	576	1
3	5810	582	1
3	5810	582	1
3	5872	588	1
3	5872	588	1
3	5936	594	1
3	5936	594	1
3	5994	600	1
3	5994	600	1
3	6058	606	1
3	6058	606	1
3	6125	612	1
3	6125	612	1
3	6181	618	1
3	6181	618	1
3	6244	624	1
3	6244	624	1
3	6305	630	1
3	6305	630	1
3	6370	636	1
3	6370	636	1
3	6434	642	1
3	6434	642	1
3	6494	648	1
3	6494	648	1
3	6558	654	1
3	6558	654	1
3	6614	660	1
3	6614	660	1
3	6682	666	1
3	6682	666	1
3	6747	672	1
3	6747	672	1
3	6805	678	1
3	6805	678	1
3	6867	684	1
3	6867	684	1
3	6926	690	1
3	6926	690	1
3	6992	696	1
3	6992	696	1
3	7049	702	1
3	7049	702	1
3	7114	708	1
3	7114	708	1
3	7179	714	1
3	7179	714	1
3	7238	720	1
3	7238	720	1
3	7295	726	1
3	7295	726	1
3	7348	732	1
3	7348	732	1
3	7401	738	1
3	7401	738	1
3	7460	744	1
3	7460	744	1
3	7523	750	1
3	7523	750	1
3	7591	756	1
3	7591	756	1
3	7648	762	1
3	7648	762	1
3	7711	768	1
3	7711	768	1
3	7772	774	1
3	7772	774	1
3	7835	780	1
3	7835	780	1
3	7900	786	1
3	7900	786	1
3	7961	792	1
3	7961	792	1
3	8025	798	1
3	8025	798	1
3	8081	804	1
3	8081	804	1
3	8139	810	1
3	8139	810	1
3	8193	816	1
3	8193	816	1
3	8247	822	1
3	8247	822	1
3	8301	828	1
3	8301	828	1
3	8355	834	1
3	8355	834	1
3	8410	840	1
3	8410	840	1
3	8456	846	1
3	8456	846	1
3	8514	852	1
3	8514	852	1
3	8571	858	1
3	8571	858	1
3	8615	864	1
3	8615	864	1
3	8670	870	1
3	8670	870	1
3	8733	876	1
3	8733	876	1
3	8784	882	1
3	8784	882	1
3	8833	888	1
3	8833	888	1
3	8897	894	1
3	8897	894	1
3	8964	900	1
3	8964	900	1
3	9021	906	1
3	9021	906	1
3	9085	912	1
3	9085	912	1
3	9145	918	1
3	9145	918	1
3	9206	924	1
3	9206	924	1
3	9269	930	1
3	9269	930	1
3	9331	936	1
3	9331	936	1
3	9396	942	1
3	9396	942	1
3	9453	948	1
3	9453	948	1
3	9518	954	1
3	9518	954	1
3	9580	960	1
3	9580	960	1
3	9581	960	1
3	9581	960	-1
3	9630	962	-1
3	9630	962	0
3	9646	966.021893539769	0
3	9646	966.021893539769	0
3	9701	972.021893539769	0
3	9701	972.021893539769	1
3	9763	978.021893539769	1
3	9763	978.021893539769	1
3	9826	984.021893539769	1
3	9826	984.021893539769	1
3	9883	990.021893539769	1
3	9883	990.021893539769	1
3	9949	996.021893539769	1
3	9949	996.021893539769	1
3	10013	1002.021893539769	1
3	10013	1002.021893539769	1
3	10074	1008.021893539769	1
3	10074	1008.021893539769	1
3	10136	1014.021893539769	1
3	10136	1014.021893539769	1
3	10198	1020.021893539769	1
3	10198	1020.021893539769	1
3	10261	1026.021893539769	1
3	10261	1026.021893539769	1
3	10320	1032.021893539769	1
3	10320	1032.021893539769	1
3	10381	1038.021893539769	1
3	10381	1038.021893539769	1
3	10448	1044.021893539769	1
3	10448	1044.021893539769	1
3	10505	1050.021893539769	1
3	10505	1050.021893539769	1
3	10569	1056.021893539769	1
3	10569	1056.021893539769	1
3	10631	1062.021893539769	1
3	10631	1062.021893539769	1
3	10693	1068.021893539769	1
3	10693	1068.021893539769	1
3	10754	1074.021893539769	1
3	10754	1074.021893539769	1
3	10818	1080.021893539769	1
3	10818	1080.021893539769	1
3	10881	1086.021893539769	1
3	10881	1086.021893539769	1
3	10940	1092.021893539769	1
[...]
32	29275	2910.67696383782	4.5
32	29327	2915.17696383782	4.5
32	29379	2919.67696383782	4.5
32	29431	2924.17696383782	4.5
32	29491	2928.67696383782	4.5
32	29543	2933.17696383782	4.5
32	29594	2937.67696383782	4.5
32	29646	2942.17696383782	4.5
32	29705	2946.67696383782	4.5
32	29757	2951.240524316358	4.563560478538
32	29808	2955.740524316358	4.5
32	29861	2960.240524316358	4.5
32	29921	2964.740524316358	4.5
32	29974	2969.240524316358	4.5
32	30026	2973.740524316358	4.5
32	30078	2978.17696383782	4.436439521462
32	30138	2982.67696383782	4.5
32	30190	2987.17696383782	4.5
32	30240	2991.67696383782	4.5
32	30292	2996.17696383782	4.5
32	30352	3000.67696383782	4.5
32	30404	3005.17696383782	4.5
32	30456	3009.67696383782	4.5
32	30508	3014.17696383782	4.5
32	30568	3018.67696383782	4.5
32	30620	3023.17696383782	4.5
32	30671	3027.67696383782	4.5
32	30723	3032.17696383782	4.5
32	30782	3036.67696383782	4.5
32	30834	3041.17696383782	4.5
33	28838	2872.903397724379	2862.5715710594
33	28894	2877.403397724379	4.5
33	28944	2881.903397724379	4.5
33	29003	2886.43183573616	4.528438011781
33	29168	2901.682182359365	15.250346623205
33	29220	2906.182182359365	4.5
33	29280	2910.682182359365	4.5
33	29332	2915.182182359365	4.5
33	29384	2919.682182359365	4.5
33	29436	2924.182182359365	4.5
33	29496	2928.682182359365	4.5
33	29548	2933.182182359365	4.5
33	29599	2937.682182359365	4.5
33	29651	2942.182182359365	4.5
33	29710	2946.682182359365	4.5
33	29762	2951.245742837903	4.563560478538
33	29813	2955.745742837903	4.5
33	29866	2960.245742837903	4.5
33	29926	2964.745742837903	4.5
33	29979	2969.245742837903	4.5
33	30031	2973.745742837903	4.5
33	30083	2978.182182359365	4.436439521462
33	30143	2982.682182359365	4.5
33	30195	2987.182182359365	4.5
33	30245	2991.682182359365	4.5
33	30297	2996.182182359365	4.5
33	30357	3000.682182359365	4.5
33	30409	3005.182182359365	4.5
33	30461	3009.682182359365	4.5
33	30513	3014.182182359365	4.5
33	30573	3018.682182359365	4.5
33	30625	3023.182182359365	4.5
33	30676	3027.682182359365	4.5
33	30728	3032.182182359365	4.5
33	30787	3036.682182359365	4.5
33	30839	3041.182182359365	4.5
34	28890	2877.399005304385	2869.3994249196
34	28940	2881.899005304385	4.5
34	28999	2886.427443316166	4.528438011781
34	29112	2897.177789939371	10.750346623205
34	29164	2901.677789939371	4.5
34	29216	2906.177789939371	4.5
34	29276	2910.677789939371	4.5
34	29328	2915.177789939371	4.5
34	29380	2919.677789939371	4.5
34	29432	2924.177789939371	4.5
34	29492	2928.677789939371	4.5
34	29544	2933.177789939371	4.5
34	29595	2937.677789939371	4.5
34	29647	2942.177789939371	4.5
34	29706	2946.677789939371	4.5
34	29758	2951.241350417909	4.563560478538
34	29809	2955.741350417909	4.5
34	29862	2960.241350417909	4.5
34	29922	2964.741350417909	4.5
34	29975	2969.241350417909	4.5
34	30027	2973.741350417909	4.5
34	30079	2978.177789939371	4.436439521462
34	30139	2982.677789939371	4.5
34	30191	2987.177789939371	4.5
34	30241	2991.677789939371	4.5
34	30293	2996.177789939371	4.5
34	30353	3000.677789939371	4.5
34	30405	3005.177789939371	4.5
34	30457	3009.677789939371	4.5
34	30509	3014.177789939371	4.5
34	30569	3018.677789939371	4.5
34	30621	3023.177789939371	4.5
34	30672	3027.677789939371	4.5
34	30724	3032.177789939371	4.5
34	30783	3036.677789939371	4.5
34	30835	3041.177789939371	4.5
35	28891	2877.400306987225	2868.9164342266
35	28941	2881.900306987225	4.5
35	29000	2886.428744999006	4.528438011781
35	29114	2897.179091622211	10.750346623205
35	29165	2901.679091622211	4.5
35	29217	2906.179091622211	4.5
35	29277	2910.679091622211	4.5
35	29329	2915.179091622211	4.5
35	29381	2919.679091622211	4.5
35	29433	2924.179091622211	4.5
35	29493	2928.679091622211	4.5
35	29545	2933.179091622211	4.5
35	29596	2937.679091622211	4.5
35	29648	2942.179091622211	4.5
35	29707	2946.679091622211	4.5
35	29759	2951.242652100749	4.563560478538
35	29810	2955.742652100749	4.5
35	29863	2960.242652100749	4.5
35	29923	2964.742652100749	4.5
35	29976	2969.242652100749	4.5
35	30028	2973.742652100749	4.5
35	30080	2978.179091622211	4.436439521462
35	30140	2982.679091622211	4.5
35	30192	2987.179091622211	4.5
35	30242	2991.679091622211	4.5
35	30294	2996.179091622211	4.5
35	30354	3000.679091622211	4.5
35	30406	3005.179091622211	4.5
35	30458	3009.679091622211	4.5
35	30510	3014.179091622211	4.5
35	30570	3018.679091622211	4.5
35	30622	3023.179091622211	4.5
35	30673	3027.679091622211	4.5
35	30725	3032.179091622211	4.5
35	30784	3036.679091622211	4.5
35	30836	3041.179091622211	4.5
36	29032	2892.27948384077	1
36	29032	2892.27948384077	2
36	29032	2892.27948384077	3
36	29032	2892.27948384077	4
36	29047	2894.27948384077	5
36	29047	2894.27948384077	6
36	29047	2894.27948384077	7
36	29047	2894.27948384077	8
36	29074	2896.27948384077	9
36	29074	2896.27948384077	10
36	29074	2896.27948384077	11
36	29074	2896.27948384077	12
36	29084	2896.77948384077	13
36	29084	2896.77948384077	14
36	29084	2896.77948384077	15
36	29084	2896.77948384077	16
36	29128	2898.27948384077	17
36	29128	2898.27948384077	18
36	29128	2898.27948384077	19
36	29128	2898.27948384077	20
36	29138	2900.27948384077	21
36	29138	2900.27948384077	22
36	29138	2900.27948384077	23
36	29138	2900.27948384077	24
36	29148	2901.27948384077	25
36	29148	2901.27948384077	26
36	29148	2901.27948384077	27
36	29148	2901.27948384077	28
36	29179	2902.27948384077	29
36	29179	2902.27948384077	30
36	29179	2902.27948384077	31
36	29179	2902.27948384077	32
36	29190	2904.27948384077	33
36	29190	2904.27948384077	34
36	29190	2904.27948384077	35
36	29190	2904.27948384077	36
36	29199	2905.77948384077	37
36	29199	2905.77948384077	38
36	29199	2905.77948384077	39
36	29199	2905.77948384077	40
36	29224	2906.27948384077	41
36	29224	2906.27948384077	42
36	29224	2906.27948384077	43
36	29224	2906.27948384077	44
36	29241	2908.27948384077	45
36	29241	2908.27948384077	46
36	29241	2908.27948384077	47
36	29241	2908.27948384077	48
36	29251	2910.27948384077	49
36	29251	2910.27948384077	50
36	29251	2910.27948384077	51
36	29251	2910.27948384077	52
36	29252	2910.27948384077	53
36	29252	2910.27948384077	54
36	29252	2910.27948384077	55
36	29252	2910.27948384077	56
36	29292	2912.27948384077	57
36	29292	2912.27948384077	58
36	29292	2912.27948384077	59
36	29292	2912.27948384077	60
36	29303	2914.27948384077	61
36	29303	2914.27948384077	62
36	29303	2914.27948384077	63
36	29303	2914.27948384077	64
36	29312	2914.77948384077	65
36	29312	2914.77948384077	66
36	29312	2914.77948384077	67
36	29312	2914.77948384077	68
36	29342	2916.27948384077	69
36	29342	2916.27948384077	70
36	29342	2916.27948384077	71
36	29342	2916.27948384077	72
36	29354	2918.27948384077	73
36	29354	2918.27948384077	74
36	29354	2918.27948384077	75
36	29354	2918.27948384077	76
36	29364	2919.27948384077	77
36	29364	2919.27948384077	78
36	29364	2919.27948384077	79
36	29364	2919.27948384077	80
36	29393	2920.27948384077	81
36	29393	2920.27948384077	82
36	29393	2920.27948384077	83
36	29393	2920.27948384077	84
36	29405	2922.27948384077	85
36	29405	2922.27948384077	86
36	29405	2922.27948384077	87
36	29405	2922.27948384077	88
36	29415	2923.77948384077	89
36	29415	2923.77948384077	90
36	29415	2923.77948384077	91
36	29415	2923.77948384077	92
36	29440	2924.27948384077	93
36	29440	2924.27948384077	94
36	29440	2924.27948384077	95
36	29440	2924.27948384077	96
36	29455	2926.27948384077	97
36	29455	2926.27948384077	98
36	29455	2926.27948384077	99
36	29455	2926.27948384077	100
36	29467	2928.27948384077	101
36	29467	2928.27948384077	102
36	29467	2928.27948384077	103
36	29467	2928.27948384077	104
36	29468	2928.27948384077	105
36	29468	2928.27948384077	106
36	29468	2928.27948384077	107
36	29468	2928.27948384077	108
36	29506	2930.27948384077	109
36	29506	2930.27948384077	110
36	29506	2930.27948384077	111
36	29506	2930.27948384077	112
36	29518	2932.27948384077	113
36	29518	2932.27948384077	114
36	29518	2932.27948384077	115
36	29518	2932.27948384077	116
36	29527	2932.77948384077	117
36	29527	2932.77948384077	118
36	29527	2932.77948384077	119
36	29527	2932.77948384077	120
36	29558	2934.27948384077	121
36	29558	2934.27948384077	122
36	29558	2934.27948384077	123
36	29558	2934.27948384077	124
36	29568	2936.27948384077	125
36	29568	2936.27948384077	126
36	29568	2936.27948384077	127
36	29568	2936.27948384077	128
36	29579	2937.27948384077	129
36	29579	2937.27948384077	130
36	29579	2937.27948384077	131
36	29579	2937.27948384077	132
36	29609	2938.27948384077	133
36	29609	2938.27948384077	134
36	29609	2938.27948384077	135
36	29609	2938.27948384077	136
36	29619	2940.27948384077	137
36	29619	2940.27948384077	138
36	29619	2940.27948384077	139
36	29619	2940.27948384077	140
36	29629	2941.77948384077	141
36	29629	2941.77948384077	142
36	29629	2941.77948384077	143
36	29629	2941.77948384077	144
36	29655	2942.27948384077	145
36	29655	2942.27948384077	146
36	29655	2942.27948384077	147
36	29655	2942.27948384077	148
36	29671	2944.27948384077	149
36	29671	2944.27948384077	150
36	29671	2944.27948384077	151
36	29671	2944.27948384077	152
36	29681	2946.27948384077	153
36	29681	2946.27948384077	154
36	29681	2946.27948384077	155
36	29681	2946.27948384077	156
36	29682	2946.27948384077	157
36	29682	2946.27948384077	158
36	29682	2946.27948384077	159
36	29682	2946.27948384077	160
36	29722	2948.27948384077	161
36	29722	2948.27948384077	162
36	29722	2948.27948384077	163
36	29722	2948.27948384077	164
36	29733	2950.27948384077	165
36	29733	2950.27948384077	166
36	29733	2950.27948384077	167
36	29733	2950.27948384077	168
36	29741	2950.77948384077	169
36	29741	2950.77948384077	170
36	29741	2950.77948384077	171
36	29741	2950.77948384077	172
36	29774	2952.27948384077	173
36	29774	2952.27948384077	174
36	29774	2952.27948384077	175
36	29774	2952.27948384077	176
36	29785	2954.27948384077	177
36	29785	2954.27948384077	178
36	29785	2954.27948384077	179
36	29785	2954.27948384077	180
36	29794	2955.27948384077	181
36	29794	2955.27948384077	182
36	29794	2955.27948384077	183
36	29794	2955.27948384077	184
36	29824	2956.27948384077	185
36	29824	2956.27948384077	186
36	29824	2956.27948384077	187
36	29824	2956.27948384077	188
36	29837	2958.27948384077	189
36	29837	2958.27948384077	190
36	29837	2958.27948384077	191
36	29837	2958.27948384077	192
36	29846	2959.77948384077	193
36	29846	2959.77948384077	194
36	29846	2959.77948384077	195
36	29846	2959.77948384077	196
36	29867	2960.27948384077	197
36	29867	2960.27948384077	198
36	29867	2960.27948384077	199
36	29867	2960.27948384077	200
36	29888	2962.27948384077	201
36	29888	2962.27948384077	202
36	29888	2962.27948384077	203
36	29888	2962.27948384077	204
36	29899	2964.27948384077	205
36	29899	2964.27948384077	206
36	29899	2964.27948384077	207
36	29899	2964.27948384077	208
36	29900	2964.27948384077	209
36	29900	2964.27948384077	210
36	29900	2964.27948384077	211
36	29900	2964.27948384077	212
36	29938	2966.27948384077	213
36	29938	2966.27948384077	214
36	29938	2966.27948384077	215
36	29938	2966.27948384077	216
36	29951	2968.27948384077	217
36	29951	2968.27948384077	218
36	29951	2968.27948384077	219
36	29951	2968.27948384077	220
36	29959	2968.77948384077	221
36	29959	2968.77948384077	222
36	29959	2968.77948384077	223
36	29959	2968.77948384077	224
36	29989	2970.27948384077	225
36	29989	2970.27948384077	226
36	29989	2970.27948384077	227
36	29989	2970.27948384077	228
36	30002	2972.27948384077	229
36	30002	2972.27948384077	230
36	30002	2972.27948384077	231
36	30002	2972.27948384077	232
36	30012	2973.27948384077	233
36	30012	2973.27948384077	234
36	30012	2973.27948384077	235
36	30012	2973.27948384077	236
36	30041	2974.27948384077	237
36	30041	2974.27948384077	238
36	30041	2974.27948384077	239
36	30041	2974.27948384077	240
36	30051	2976.27948384077	241
36	30051	2976.27948384077	242
36	30051	2976.27948384077	243
36	30051	2976.27948384077	244
36	30062	2977.77948384077	245
36	30062	2977.77948384077	246
36	30062	2977.77948384077	247
36	30062	2977.77948384077	248
36	30087	2978.27948384077	249
36	30087	2978.27948384077	250
36	30087	2978.27948384077	251
36	30087	2978.27948384077	252
36	30102	2980.27948384077	253
36	30102	2980.27948384077	254
36	30102	2980.27948384077	255
36	30102	2980.27948384077	256
36	30114	2982.27948384077	257
36	30114	2982.27948384077	258
36	30114	2982.27948384077	259
36	30114	2982.27948384077	260
36	30115	2982.27948384077	261
36	30115	2982.27948384077	262
36	30115	2982.27948384077	263
36	30115	2982.27948384077	264
36	30154	2984.27948384077	265
36	30154	2984.27948384077	266
36	30154	2984.27948384077	267
36	30154	2984.27948384077	268
36	30164	2986.27948384077	269
36	30164	2986.27948384077	270
36	30164	2986.27948384077	271
36	30164	2986.27948384077	272
36	30173	2986.77948384077	273
36	30173	2986.77948384077	274
36	30173	2986.77948384077	275
36	30173	2986.77948384077	276
36	30205	2988.27948384077	277
36	30205	2988.27948384077	278
36	30205	2988.27948384077	279
36	30205	2988.27948384077	280
36	30215	2990.27948384077	281
36	30215	2990.27948384077	282
36	30215	2990.27948384077	283
36	30215	2990.27948384077	284
36	30225	2991.27948384077	285
36	30225	2991.27948384077	286
36	30225	2991.27948384077	287
36	30225	2991.27948384077	288
36	30256	2992.27948384077	289
36	30256	2992.27948384077	290
36	30256	2992.27948384077	291
36	30256	2992.27948384077	292
36	30267	2994.27948384077	293
36	30267	2994.27948384077	294
36	30267	2994.27948384077	295
36	30267	2994.27948384077	296
36	30276	2995.77948384077	297
36	30276	2995.77948384077	298
36	30276	2995.77948384077	299
36	30276	2995.77948384077	300
36	30301	2996.27948384077	301
36	30301	2996.27948384077	302
36	30301	2996.27948384077	303
36	30301	2996.27948384077	304
36	30318	2998.27948384077	305
36	30318	2998.27948384077	306
36	30318	2998.27948384077	307
36	30318	2998.27948384077	308
36	30328	3000.27948384077	309
36	30328	3000.27948384077	310
36	30328	3000.27948384077	311
36	30328	3000.27948384077	312
36	30329	3000.27948384077	313
36	30329	3000.27948384077	314
36	30329	3000.27948384077	315
36	30329	3000.27948384077	316
36	30369	3002.27948384077	317
36	30369	3002.27948384077	318
36	30369	3002.27948384077	319
36	30369	3002.27948384077	320
36	30380	3004.27948384077	321
36	30380	3004.27948384077	322
36	30380	3004.27948384077	323
36	30380	3004.27948384077	324
36	30389	3004.77948384077	325
36	30389	3004.77948384077	326
36	30389	3004.77948384077	327
36	30389	3004.77948384077	328
36	30419	3006.27948384077	329
36	30419	3006.27948384077	330
36	30419	3006.27948384077	331
36	30419	3006.27948384077	332
36	30431	3008.27948384077	333
36	30431	3008.27948384077	334
36	30431	3008.27948384077	335
36	30431	3008.27948384077	336
36	30441	3009.27948384077	337
36	30441	3009.27948384077	338
36	30441	3009.27948384077	339
36	30441	3009.27948384077	340
36	30470	3010.27948384077	341
36	30470	3010.27948384077	342
36	30470	3010.27948384077	343
36	30470	3010.27948384077	344
36	30482	3012.27948384077	345
36	30482	3012.27948384077	346
36	30482	3012.27948384077	347
36	30482	3012.27948384077	348
36	30492	3013.77948384077	349
36	30492	3013.77948384077	350
36	30492	3013.77948384077	351
36	30492	3013.77948384077	352
36	30517	3014.27948384077	353
36	30517	3014.27948384077	354
36	30517	3014.27948384077	355
36	30517	3014.27948384077	356
36	30532	3016.27948384077	357
36	30532	3016.27948384077	358
36	30532	3016.27948384077	359
36	30532	3016.27948384077	360
36	30544	3018.27948384077	361
36	30544	3018.27948384077	362
36	30544	3018.27948384077	363
36	30544	3018.27948384077	364
36	30545	3018.27948384077	365
36	30545	3018.27948384077	366
36	30545	3018.27948384077	367
36	30545	3018.27948384077	368
36	30583	3020.27948384077	369
36	30583	3020.27948384077	370
36	30583	3020.27948384077	371
36	30583	3020.27948384077	372
36	30595	3022.27948384077	373
36	30595	3022.27948384077	374
36	30595	3022.27948384077	375
36	30595	3022.27948384077	376
36	30604	3022.77948384077	377
36	30604	3022.77948384077	378
36	30604	3022.77948384077	379
36	30604	3022.77948384077	380
36	30635	3024.27948384077	381
36	30635	3024.27948384077	382
36	30635	3024.27948384077	383
36	30635	3024.27948384077	384
36	30645	3026.27948384077	385
36	30645	3026.27948384077	386
36	30645	3026.27948384077	387
36	30645	3026.27948384077	388
36	30656	3027.27948384077	389
36	30656	3027.27948384077	390
36	30656	3027.27948384077	391
36	30656	3027.27948384077	392
36	30686	3028.27948384077	393
36	30686	3028.27948384077	394
36	30686	3028.27948384077	395
36	30686	3028.27948384077	396
36	30696	3030.27948384077	397
36	30696	3030.27948384077	398
36	30696	3030.27948384077	399
36	30696	3030.27948384077	400
36	30706	3031.77948384077	401
36	30706	3031.77948384077	402
36	30706	3031.77948384077	403
36	30706	3031.77948384077	404
36	30732	3032.27948384077	405
36	30732	3032.27948384077	406
36	30732	3032.27948384077	407
36	30732	3032.27948384077	408
36	30748	3034.27948384077	409
36	30748	3034.27948384077	410
36	30748	3034.27948384077	411
36	30748	3034.27948384077	412
36	30758	3036.27948384077	413
36	30758	3036.27948384077	414
36	30758	3036.27948384077	415
36	30758	3036.27948384077	416
36	30759	3036.27948384077	417
36	30759	3036.27948384077	418
36	30759	3036.27948384077	419
36	30759	3036.27948384077	420
36	30799	3038.27948384077	421
36	30799	3038.27948384077	422
36	30799	3038.27948384077	423
36	30799	3038.27948384077	424
36	30809	3040.27948384077	425
36	30809	3040.27948384077	426
36	30809	3040.27948384077	427
36	30809	3040.27948384077	428
36	30818	3040.77948384077	429
36	30818	3040.77948384077	430
36	30818	3040.77948384077	431
36	30818	3040.77948384077	432
37	29034	2892.295500059231	1
37	29049	2894.295500059231	2
37	29076	2896.295500059231	3
37	29086	2896.795500059231	4
37	29130	2898.295500059231	5
37	29140	2900.295500059231	6
37	29150	2901.295500059231	7
37	29181	2902.295500059231	8
37	29192	2904.295500059231	9
37	29201	2905.795500059231	10
37	29226	2906.295500059231	11
37	29243	2908.295500059231	12
37	29255	2910.295500059231	13
37	29256	2910.295500059231	14
37	29294	2912.295500059231	15
37	29305	2914.295500059231	16
37	29314	2914.795500059231	17
37	29344	2916.295500059231	18
37	29356	2918.295500059231	19
37	29366	2919.295500059231	20
37	29395	2920.295500059231	21
37	29407	2922.295500059231	22
37	29417	2923.795500059231	23
37	29442	2924.295500059231	24
37	29457	2926.295500059231	25
37	29471	2928.295500059231	26
37	29472	2928.295500059231	27
37	29508	2930.295500059231	28
37	29520	2932.295500059231	29
37	29529	2932.795500059231	30
37	29560	2934.295500059231	31
37	29570	2936.295500059231	32
37	29581	2937.295500059231	33
37	29611	2938.295500059231	34
37	29621	2940.295500059231	35
37	29631	2941.795500059231	36
37	29657	2942.295500059231	37
37	29673	2944.295500059231	38
37	29685	2946.295500059231	39
37	29686	2946.295500059231	40
37	29724	2948.295500059231	41
37	30043	2974.295500059231	42
37	30053	2976.295500059231	43
37	30064	2977.795500059231	44
37	30089	2978.295500059231	45
37	30104	2980.295500059231	46
37	30118	2982.295500059231	47
37	30119	2982.295500059231	48
37	30156	2984.295500059231	49
37	30166	2986.295500059231	50
37	30175	2986.795500059231	51
37	30207	2988.295500059231	52
37	30217	2990.295500059231	53
37	30227	2991.295500059231	54
37	30258	2992.295500059231	55
37	30269	2994.295500059231	56
37	30278	2995.795500059231	57
37	30303	2996.295500059231	58
37	30320	2998.295500059231	59
37	30332	3000.295500059231	60
37	30333	3000.295500059231	61
37	30371	3002.295500059231	62
37	30382	3004.295500059231	63
37	30391	3004.795500059231	64
37	30421	3006.295500059231	65
37	30433	3008.295500059231	66
37	30443	3009.295500059231	67
37	30472	3010.295500059231	68
37	30484	3012.295500059231	69
37	30494	3013.795500059231	70
37	30519	3014.295500059231	71
37	30534	3016.295500059231	72
37	30548	3018.295500059231	73
37	30549	3018.295500059231	74
37	30585	3020.295500059231	75
37	30597	3022.295500059231	76
37	30606	3022.795500059231	77
37	30637	3024.295500059231	78
37	30647	3026.295500059231	79
37	30658	3027.295500059231	80
37	30688	3028.295500059231	81
37	30698	3030.295500059231	82
37	30708	3031.795500059231	83
37	30734	3032.295500059231	84
37	30750	3034.295500059231	85
37	30762	3036.295500059231	86
37	30763	3036.295500059231	87
37	30801	3038.295500059231	88
37	30811	3040.295500059231	89
37	30820	3040.795500059231	90

