version 2
run StaticNetwork-37-20220402-10:51:41-10268
attr configname StaticNetwork
attr datetime 20220402-10:51:41
attr experiment StaticNetwork
attr inifile omnetpp.ini
attr iterationvars "$0=3, $1=5, $2=normal(7.0s, 1.5s), $3=uniform(0.1s, 0.3s), $4=6s, $5=2s, $6=4.5s, $7=5s, $8=1s, $9=1, $10=7, $11=0"
attr iterationvarsf 3,5,normal(7.0s,_1.5s),uniform(0.1s,_0.3s),6s,2s,4.5s,5s,1s,1,7,0-
attr measurement "$0=3, $1=5, $2=normal(7.0s, 1.5s), $3=uniform(0.1s, 0.3s), $4=6s, $5=2s, $6=4.5s, $7=5s, $8=1s, $9=1, $10=7, $11=0"
attr network RAFT_Network
attr processid 10268
attr repetition 1
attr replication #1
attr resultdir results
attr runnumber 37
attr seedset 37
param **.servers_number 3
param **.clients_number 5
param **.client[*].requestMsgTimeout "normal(7.0s, 1.5s)"
param **.cloud.propDelay "uniform(0.1s, 0.3s)"
param **.server[*].electionTimeout 6s
param **.server[*].heartbeatTimeout 2s
param **.server[*].appendEntriesTimeout 4.5s
param **.server[*].checkFailureTimeout 5s
param **.server[*].checkRecoveryTimeout 1s
param **.failureProbability 1
param **.recoveryProbability 7
param **.messageLossProbability 0

vector 0 RAFT_Network.server[0] serverState ETV
vector 1 RAFT_Network.server[1] serverState ETV
vector 2 RAFT_Network.server[2] serverState ETV
0	0	0	0
1	0	0	0
2	0	0	0
vector 3 RAFT_Network.server[0] totMsgReceived ETV
vector 4 RAFT_Network.server[0] totMsgSent ETV
vector 5 RAFT_Network.server[0] totRequestVoteMsgSent ETV
vector 6 RAFT_Network.server[1] totMsgSent ETV
vector 7 RAFT_Network.server[1] totRequestVoteMsgSent ETV
vector 8 RAFT_Network.server[2] totMsgSent ETV
vector 9 RAFT_Network.server[2] totRequestVoteMsgSent ETV
vector 10 RAFT_Network.server[1] totMsgReceived ETV
vector 11 RAFT_Network.server[1] totReplyToClientRequestMsgSent ETV
vector 12 RAFT_Network.server[0] totReplyToClientRequestMsgSent ETV
vector 13 RAFT_Network.server[2] totMsgReceived ETV
vector 14 RAFT_Network.server[2] totReplyToClientRequestMsgSent ETV
vector 15 RAFT_Network.server[0] electionsMeanTime ETV
vector 16 RAFT_Network.server[0] totAppendEntriesMsgSent ETV
vector 17 RAFT_Network.server[1] totReplyToAppendEntriesMsgSent ETV
vector 18 RAFT_Network.server[2] totReplyToAppendEntriesMsgSent ETV
vector 19 RAFT_Network.client[3] responseTime ETV
vector 20 RAFT_Network.client[0] responseTime ETV
vector 21 RAFT_Network.client[4] responseTime ETV
vector 22 RAFT_Network.client[2] responseTime ETV
vector 23 RAFT_Network.client[1] responseTime ETV
vector 24 RAFT_Network.server[1] totAppendEntriesMsgSent ETV
vector 25 RAFT_Network.server[0] totReplyToAppendEntriesMsgSent ETV
0	7	6	0
0	7	6	1
0	40	12	1
0	40	12	1
0	70	18	1
0	70	18	1
0	100	24	1
0	100	24	1
0	133	30	1
0	133	30	1
0	166	36	1
0	166	36	1
0	196	42	1
0	196	42	1
0	226	48	1
0	226	48	1
0	259	54	1
0	259	54	1
0	292	60	1
0	292	60	1
0	325	66	1
0	325	66	1
0	355	72	1
0	355	72	1
0	388	78	1
0	388	78	1
0	417	84	1
0	417	84	1
0	445	90	1
0	445	90	1
0	481	96	1
0	481	96	1
0	514	102	1
0	514	102	1
0	544	108	1
0	544	108	1
0	577	114	1
0	577	114	1
0	607	120	1
0	607	120	1
0	640	126	1
0	640	126	1
0	669	132	1
0	669	132	1
0	699	138	1
0	699	138	1
0	702	138.00892363145	1
0	702	138.00892363145	2
0	4675	595	2
0	4675	595	-1
0	4677	596	-1
0	4677	596	0
0	4695	600.0178472629	0
0	4695	600.0178472629	0
0	4729	606.0178472629	0
0	4729	606.0178472629	1
0	4779	612.0178472629	1
0	4779	612.0178472629	1
0	4818	618.0178472629	1
0	4818	618.0178472629	1
0	4863	624.0178472629	1
0	4863	624.0178472629	1
0	4899	630.0178472629	1
0	4899	630.0178472629	1
0	4942	636.0178472629	1
0	4942	636.0178472629	1
0	4987	642.0178472629	1
0	4987	642.0178472629	1
0	5034	648.0178472629	1
0	5034	648.0178472629	1
0	5076	654.0178472629	1
0	5076	654.0178472629	1
0	5113	660.0178472629	1
0	5113	660.0178472629	1
0	5159	666.0178472629	1
0	5159	666.0178472629	1
0	5193	672.0178472629	1
0	5193	672.0178472629	1
0	5232	678.0178472629	1
0	5232	678.0178472629	1
0	5285	684.0178472629	1
0	5285	684.0178472629	1
0	5320	690.0178472629	1
0	5320	690.0178472629	1
0	5364	696.0178472629	1
0	5364	696.0178472629	1
0	5417	702.0178472629	1
0	5417	702.0178472629	1
0	5454	708.0178472629	1
0	5454	708.0178472629	1
0	5496	714.0178472629	1
0	5496	714.0178472629	1
0	5538	720.0178472629	1
0	5538	720.0178472629	1
0	5580	726.0178472629	1
0	5580	726.0178472629	1
0	5627	732.0178472629	1
0	5627	732.0178472629	1
0	5670	738.0178472629	1
0	5670	738.0178472629	1
0	5709	744.0178472629	1
0	5709	744.0178472629	1
0	5747	750.0178472629	1
0	5747	750.0178472629	1
0	5784	756.0178472629	1
0	5784	756.0178472629	1
0	5829	762.0178472629	1
0	5829	762.0178472629	1
0	5868	768.0178472629	1
0	5868	768.0178472629	1
0	5904	774.0178472629	1
0	5904	774.0178472629	1
0	5952	780.0178472629	1
0	5952	780.0178472629	1
0	5991	786.0178472629	1
0	5991	786.0178472629	1
0	6032	792.0178472629	1
0	6032	792.0178472629	1
0	6074	798.0178472629	1
0	6074	798.0178472629	1
0	6104	804.0178472629	1
0	6104	804.0178472629	1
0	6148	810.0178472629	1
0	6148	810.0178472629	1
0	6191	816.0178472629	1
0	6191	816.0178472629	1
0	6239	822.0178472629	1
0	6239	822.0178472629	1
0	6261	826	1
0	6261	826	-1
0	6304	834	-1
0	6304	834	0
0	6306	834.0178472629	0
0	6306	834.0178472629	0
0	6351	840.0178472629	0
0	6351	840.0178472629	1
0	6386	846.0178472629	1
0	6386	846.0178472629	1
0	6424	852.0178472629	1
0	6424	852.0178472629	1
0	6465	858.0178472629	1
0	6465	858.0178472629	1
0	6501	864.0178472629	1
0	6501	864.0178472629	1
0	6553	870.0178472629	1
0	6553	870.0178472629	1
0	6602	876.0178472629	1
0	6602	876.0178472629	1
0	6637	882.0178472629	1
0	6637	882.0178472629	1
0	6676	888.0178472629	1
0	6676	888.0178472629	1
0	6721	894.0178472629	1
0	6721	894.0178472629	1
0	6760	900.0178472629	1
0	6760	900.0178472629	1
0	6803	906.0178472629	1
0	6803	906.0178472629	1
0	6840	912.0178472629	1
0	6840	912.0178472629	1
0	6892	918.0178472629	1
0	6892	918.0178472629	1
0	6932	924.0178472629	1
0	6932	924.0178472629	1
0	6982	930.0178472629	1
0	6982	930.0178472629	1
0	7020	936.0178472629	1
0	7020	936.0178472629	1
0	7042	942.0178472629	1
0	7042	942.0178472629	1
0	7074	948.0178472629	1
0	7074	948.0178472629	1
0	7111	954.0178472629	1
0	7111	954.0178472629	1
0	7145	960.0178472629	1
0	7145	960.0178472629	1
0	7185	966.0178472629	1
0	7185	966.0178472629	1
0	7194	966.084089697828	1
0	7194	966.084089697828	0
0	7875	1044	0
0	7875	1044	-1
0	8390	1103	-1
0	8390	1103	0
0	10298	1323	0
0	10298	1323	-1
0	10362	1333	-1
0	10362	1333	0
0	13846	1733	0
0	13846	1733	-1
0	13998	1750	-1
0	13998	1750	0
0	17791	2192.084089697828	0
0	17791	2192.084089697828	1
0	17836	2198.084089697828	1
0	17836	2198.084089697828	1
0	17840	2198.201503694696	1
0	17840	2198.201503694696	2
0	19073	2340	2
0	19073	2340	-1
0	19375	2389	-1
0	19375	2389	0
0	19402	2392.210427326146	0
0	19402	2392.210427326146	0
0	19432	2398.210427326146	0
0	19432	2398.210427326146	1
0	19469	2404.210427326146	1
0	19469	2404.210427326146	1
0	19522	2410.210427326146	1
0	19522	2410.210427326146	1
0	19563	2416.210427326146	1
0	19563	2416.210427326146	1
0	19604	2422.210427326146	1
0	19604	2422.210427326146	1
0	19646	2428.210427326146	1
0	19646	2428.210427326146	1
0	19680	2434.210427326146	1
0	19680	2434.210427326146	1
0	19719	2440.210427326146	1
0	19719	2440.210427326146	1
0	19769	2446.210427326146	1
0	19769	2446.210427326146	1
0	19809	2452.210427326146	1
0	19809	2452.210427326146	1
0	19840	2458.210427326146	1
0	19840	2458.210427326146	1
0	19887	2464.210427326146	1
0	19887	2464.210427326146	1
0	19935	2470.210427326146	1
0	19935	2470.210427326146	1
0	19977	2476.210427326146	1
0	19977	2476.210427326146	1
0	20008	2482.210427326146	1
0	20008	2482.210427326146	1
0	20046	2488.210427326146	1
0	20046	2488.210427326146	1
0	20089	2494.210427326146	1
0	20089	2494.210427326146	1
0	20123	2500.210427326146	1
0	20123	2500.210427326146	1
0	20162	2506.210427326146	1
0	20162	2506.210427326146	1
0	20193	2512.210427326146	1
0	20193	2512.210427326146	1
0	20217	2518.210427326146	1
0	20217	2518.210427326146	1
0	20219	2518.219350957596	1
0	20219	2518.219350957596	2
0	24411	3000	2
1	8	6	0
1	8	6	1
1	41	12	1
1	41	12	1
1	71	18	1
1	71	18	1
1	101	24	1
1	101	24	1
1	134	30	1
1	134	30	1
1	167	36	1
1	167	36	1
1	197	42	1
1	197	42	1
1	227	48	1
1	227	48	1
1	260	54	1
1	260	54	1
1	293	60	1
1	293	60	1
1	326	66	1
1	326	66	1
1	356	72	1
1	356	72	1
1	389	78	1
1	389	78	1
1	418	84	1
1	418	84	1
1	446	90	1
1	446	90	1
1	482	96	1
1	482	96	1
1	515	102	1
1	515	102	1
1	545	108	1
1	545	108	1
1	578	114	1
1	578	114	1
1	608	120	1
1	608	120	1
1	641	126	1
1	641	126	1
1	670	132	1
1	670	132	1
1	695	135	1
1	695	135	-1
1	698	137	-1
1	698	137	0
1	701	138.003464264598	0
1	701	138.003464264598	0
1	2182	307	0
1	2182	307	-1
1	2183	308	-1
1	2183	308	0
1	4694	600.012387896048	0
1	4694	600.012387896048	1
1	4728	606.012387896048	1
1	4728	606.012387896048	1
1	4778	612.012387896048	1
1	4778	612.012387896048	1
1	4817	618.012387896048	1
1	4817	618.012387896048	1
1	4862	624.012387896048	1
1	4862	624.012387896048	1
1	4898	630.012387896048	1
1	4898	630.012387896048	1
1	4941	636.012387896048	1
1	4941	636.012387896048	1
1	4986	642.012387896048	1
1	4986	642.012387896048	1
1	5033	648.012387896048	1
1	5033	648.012387896048	1
1	5075	654.012387896048	1
1	5075	654.012387896048	1
1	5112	660.012387896048	1
1	5112	660.012387896048	1
1	5158	666.012387896048	1
1	5158	666.012387896048	1
1	5192	672.012387896048	1
1	5192	672.012387896048	1
1	5231	678.012387896048	1
1	5231	678.012387896048	1
1	5284	684.012387896048	1
1	5284	684.012387896048	1
1	5319	690.012387896048	1
1	5319	690.012387896048	1
1	5363	696.012387896048	1
1	5363	696.012387896048	1
1	5416	702.012387896048	1
1	5416	702.012387896048	1
1	5453	708.012387896048	1
1	5453	708.012387896048	1
1	5495	714.012387896048	1
1	5495	714.012387896048	1
1	5537	720.012387896048	1
1	5537	720.012387896048	1
1	5579	726.012387896048	1
1	5579	726.012387896048	1
1	5626	732.012387896048	1
1	5626	732.012387896048	1
1	5669	738.012387896048	1
1	5669	738.012387896048	1
1	5708	744.012387896048	1
1	5708	744.012387896048	1
1	5746	750.012387896048	1
1	5746	750.012387896048	1
1	5783	756.012387896048	1
1	5783	756.012387896048	1
1	5828	762.012387896048	1
1	5828	762.012387896048	1
1	5867	768.012387896048	1
1	5867	768.012387896048	1
1	5903	774.012387896048	1
1	5903	774.012387896048	1
1	5951	780.012387896048	1
1	5951	780.012387896048	1
1	5990	786.012387896048	1
1	5990	786.012387896048	1
1	6031	792.012387896048	1
1	6031	792.012387896048	1
1	6073	798.012387896048	1
1	6073	798.012387896048	1
1	6103	804.012387896048	1
1	6103	804.012387896048	1
1	6147	810.012387896048	1
1	6147	810.012387896048	1
1	6190	816.012387896048	1
1	6190	816.012387896048	1
1	6238	822.012387896048	1
1	6238	822.012387896048	1
1	6275	828.012387896048	1
1	6275	828.012387896048	1
1	6305	834.012387896048	1
1	6305	834.012387896048	1
1	6349	840.012387896048	1
1	6349	840.012387896048	1
1	6385	846.012387896048	1
1	6385	846.012387896048	1
1	6423	852.012387896048	1
1	6423	852.012387896048	1
1	6464	858.012387896048	1
1	6464	858.012387896048	1
1	6500	864.012387896048	1
1	6500	864.012387896048	1
1	6552	870.012387896048	1
1	6552	870.012387896048	1
1	6601	876.012387896048	1
1	6601	876.012387896048	1
1	6636	882.012387896048	1
1	6636	882.012387896048	1
1	6675	888.012387896048	1
1	6675	888.012387896048	1
1	6720	894.012387896048	1
1	6720	894.012387896048	1
1	6759	900.012387896048	1
1	6759	900.012387896048	1
1	6802	906.012387896048	1
1	6802	906.012387896048	1
1	6839	912.012387896048	1
1	6839	912.012387896048	1
1	6891	918.012387896048	1
1	6891	918.012387896048	1
1	6931	924.012387896048	1
1	6931	924.012387896048	1
1	6981	930.012387896048	1
1	6981	930.012387896048	1
1	7019	936.012387896048	1
1	7019	936.012387896048	1
1	7041	942.012387896048	1
1	7041	942.012387896048	1
1	7073	948.012387896048	1
1	7073	948.012387896048	1
1	7110	954.012387896048	1
1	7110	954.012387896048	1
1	7144	960.012387896048	1
1	7144	960.012387896048	1
1	7182	966.012387896048	1
1	7182	966.012387896048	1
1	7193	966.078630330976	1
1	7193	966.078630330976	2
1	17780	2188	2
1	17780	2188	-1
1	17830	2196	-1
1	17830	2196	0
1	17837	2198.087553962426	0
1	17837	2198.087553962426	0
1	19084	2344.204967959294	0
1	19084	2344.204967959294	1
1	19134	2350.204967959294	1
1	19134	2350.204967959294	1
1	19170	2356.204967959294	1
1	19170	2356.204967959294	1
1	19212	2362.204967959294	1
1	19212	2362.204967959294	1
1	19248	2368.204967959294	1
1	19248	2368.204967959294	1
1	19288	2374.204967959294	1
1	19288	2374.204967959294	1
1	19328	2380.204967959294	1
1	19328	2380.204967959294	1
1	19360	2386.204967959294	1
1	19360	2386.204967959294	1
1	19401	2392.204967959294	1
1	19401	2392.204967959294	1
1	19431	2398.204967959294	1
1	19431	2398.204967959294	1
1	19468	2404.204967959294	1
1	19468	2404.204967959294	1
1	19521	2410.204967959294	1
1	19521	2410.204967959294	1
1	19562	2416.204967959294	1
1	19562	2416.204967959294	1
1	19603	2422.204967959294	1
1	19603	2422.204967959294	1
1	19645	2428.204967959294	1
1	19645	2428.204967959294	1
1	19679	2434.204967959294	1
1	19679	2434.204967959294	1
1	19718	2440.204967959294	1
1	19718	2440.204967959294	1
1	19768	2446.204967959294	1
1	19768	2446.204967959294	1
1	19808	2452.204967959294	1
1	19808	2452.204967959294	1
1	19839	2458.204967959294	1
1	19839	2458.204967959294	1
1	19886	2464.204967959294	1
1	19886	2464.204967959294	1
1	19934	2470.204967959294	1
1	19934	2470.204967959294	1
1	19975	2476	1
1	19975	2476	-1
1	20206	2513	-1
1	20206	2513	0
1	20218	2518.213891590744	0
1	20218	2518.213891590744	0
1	20418	2538	0
1	20418	2538	-1
1	20461	2543	-1
1	20461	2543	0
1	24411	3000	0
2	9	6	0
2	9	6	1
2	42	12	1
2	42	12	1
2	72	18	1
2	72	18	1
2	102	24	1
2	102	24	1
2	135	30	1
2	135	30	1
2	168	36	1
2	168	36	1
2	198	42	1
2	198	42	1
2	228	48	1
2	228	48	1
2	261	54	1
2	261	54	1
2	294	60	1
2	294	60	1
2	327	66	1
2	327	66	1
2	357	72	1
2	357	72	1
2	390	78	1
2	390	78	1
2	419	84	1
2	419	84	1
2	447	90	1
2	447	90	1
2	483	96	1
2	483	96	1
2	516	102	1
2	516	102	1
2	546	108	1
2	546	108	1
2	579	114	1
2	579	114	1
2	609	120	1
2	609	120	1
2	642	126	1
2	642	126	1
2	671	132	1
2	671	132	1
2	700	138	1
2	700	138	1
2	708	138.057919666947	1
2	708	138.057919666947	0
2	4699	600.057919666947	0
2	4699	600.057919666947	1
2	4735	606.057919666947	1
2	4735	606.057919666947	1
2	4784	612.057919666947	1
2	4784	612.057919666947	1
2	4823	618.057919666947	1
2	4823	618.057919666947	1
2	4868	624.057919666947	1
2	4868	624.057919666947	1
2	4904	630.057919666947	1
2	4904	630.057919666947	1
2	4947	636.057919666947	1
2	4947	636.057919666947	1
2	4992	642.057919666947	1
2	4992	642.057919666947	1
2	5039	648.057919666947	1
2	5039	648.057919666947	1
2	5081	654.057919666947	1
2	5081	654.057919666947	1
2	5118	660.057919666947	1
2	5118	660.057919666947	1
2	5164	666.057919666947	1
2	5164	666.057919666947	1
2	5198	672.057919666947	1
2	5198	672.057919666947	1
2	5237	678.057919666947	1
2	5237	678.057919666947	1
2	5290	684.057919666947	1
2	5290	684.057919666947	1
2	5325	690.057919666947	1
2	5325	690.057919666947	1
2	5369	696.057919666947	1
2	5369	696.057919666947	1
2	5422	702.057919666947	1
2	5422	702.057919666947	1
2	5459	708.057919666947	1
2	5459	708.057919666947	1
2	5501	714.057919666947	1
2	5501	714.057919666947	1
2	5543	720.057919666947	1
2	5543	720.057919666947	1
2	5585	726.057919666947	1
2	5585	726.057919666947	1
2	5632	732.057919666947	1
2	5632	732.057919666947	1
2	5675	738.057919666947	1
2	5675	738.057919666947	1
2	5715	744.057919666947	1
2	5715	744.057919666947	1
2	5752	750.057919666947	1
2	5752	750.057919666947	1
2	5789	756.057919666947	1
2	5789	756.057919666947	1
2	5834	762.057919666947	1
2	5834	762.057919666947	1
2	5873	768.057919666947	1
2	5873	768.057919666947	1
2	5911	774.057919666947	1
2	5911	774.057919666947	1
2	5958	780.057919666947	1
2	5958	780.057919666947	1
2	5996	786.057919666947	1
2	5996	786.057919666947	1
2	6037	792.057919666947	1
2	6037	792.057919666947	1
2	6079	798.057919666947	1
2	6079	798.057919666947	1
2	6109	804.057919666947	1
2	6109	804.057919666947	1
2	6153	810.057919666947	1
2	6153	810.057919666947	1
2	6197	816.057919666947	1
2	6197	816.057919666947	1
2	6245	822.057919666947	1
2	6245	822.057919666947	1
2	6277	828.057919666947	1
2	6277	828.057919666947	1
2	6308	834.057919666947	1
2	6308	834.057919666947	1
2	6356	840.057919666947	1
2	6356	840.057919666947	1
2	6392	846.057919666947	1
2	6392	846.057919666947	1
2	6429	852.057919666947	1
2	6429	852.057919666947	1
2	6470	858.057919666947	1
2	6470	858.057919666947	1
2	6506	864.057919666947	1
2	6506	864.057919666947	1
2	6560	870.057919666947	1
2	6560	870.057919666947	1
2	6607	876.057919666947	1
2	6607	876.057919666947	1
2	6642	882.057919666947	1
2	6642	882.057919666947	1
2	6681	888.057919666947	1
2	6681	888.057919666947	1
2	6726	894.057919666947	1
2	6726	894.057919666947	1
2	6767	900.057919666947	1
2	6767	900.057919666947	1
2	6808	906.057919666947	1
2	6808	906.057919666947	1
2	6845	912.057919666947	1
2	6845	912.057919666947	1
2	6897	918.057919666947	1
2	6897	918.057919666947	1
2	6937	924.057919666947	1
2	6937	924.057919666947	1
2	6987	930.057919666947	1
2	6987	930.057919666947	1
2	7012	935	1
2	7012	935	-1
2	7176	965	-1
2	7176	965	0
2	7191	966.062067502538	0
2	7191	966.062067502538	0
2	10051	1295	0
2	10051	1295	-1
2	10099	1300	-1
2	10099	1300	0
2	10180	1310	0
2	10180	1310	-1
2	10346	1331	-1
2	10346	1331	0
2	12255	1551	0
2	12255	1551	-1
2	12519	1579	-1
2	12519	1579	0
2	14321	1789	0
2	14321	1789	-1
2	14352	1791	-1
2	14352	1791	0
2	17793	2192.128309937466	0
2	17793	2192.128309937466	1
2	17829	2196	1
2	17829	2196	-1
2	17832	2197	-1
2	17832	2197	0
2	17839	2198.133085733325	0
2	17839	2198.133085733325	0
2	19086	2344.250499730193	0
2	19086	2344.250499730193	1
2	19136	2350.250499730193	1
2	19136	2350.250499730193	1
2	19173	2356.250499730193	1
2	19173	2356.250499730193	1
2	19214	2362.250499730193	1
2	19214	2362.250499730193	1
2	19250	2368.250499730193	1
2	19250	2368.250499730193	1
2	19290	2374.250499730193	1
2	19290	2374.250499730193	1
2	19330	2380.250499730193	1
2	19330	2380.250499730193	1
2	19362	2386.250499730193	1
2	19362	2386.250499730193	1
2	19404	2392.250499730193	1
2	19404	2392.250499730193	1
2	19437	2398.250499730193	1
2	19437	2398.250499730193	1
2	19474	2404.250499730193	1
2	19474	2404.250499730193	1
2	19527	2410.250499730193	1
2	19527	2410.250499730193	1
2	19568	2416.250499730193	1
2	19568	2416.250499730193	1
2	19609	2422.250499730193	1
2	19609	2422.250499730193	1
2	19651	2428.250499730193	1
2	19651	2428.250499730193	1
2	19686	2434.250499730193	1
2	19686	2434.250499730193	1
2	19724	2440.250499730193	1
2	19724	2440.250499730193	1
2	19774	2446.250499730193	1
2	19774	2446.250499730193	1
2	19814	2452.250499730193	1
2	19814	2452.250499730193	1
2	19845	2458.250499730193	1
2	19845	2458.250499730193	1
2	19893	2464.250499730193	1
2	19893	2464.250499730193	1
2	19940	2470.250499730193	1
2	19940	2470.250499730193	1
2	19979	2476.250499730193	1
2	19979	2476.250499730193	1
2	20010	2482.250499730193	1
2	20010	2482.250499730193	1
2	20048	2488.250499730193	1
2	20048	2488.250499730193	1
2	20091	2494.250499730193	1
2	20091	2494.250499730193	1
2	20125	2500.250499730193	1
2	20125	2500.250499730193	1
2	20164	2506.250499730193	1
2	20164	2506.250499730193	1
2	20195	2512.250499730193	1
2	20195	2512.250499730193	1
2	20222	2518.250499730193	1
2	20222	2518.250499730193	1
2	20225	2518.268346993093	1
2	20225	2518.268346993093	0
2	21439	2657	0
2	21439	2657	-1
2	21450	2658	-1
2	21450	2658	0
2	24411	3000	0
3	6	5.587713552238	1
3	11	6.005459366852	2
3	12	6.00892363145	3
3	19	6.068417961371	4
3	20	6.117413996868	5
3	24	6.579353183745	6
3	27	7.329422055306	7
3	30	8.581585011429	8
3	44	12.005459366852	9
3	45	12.00892363145	10
3	52	12.068417961371	11
3	53	12.117413996868	12
3	60	14.368420296417	13
3	66	16.27511947635	14
3	74	18.005459366852	15
3	75	18.00892363145	16
3	82	18.068417961371	17
3	83	18.117413996868	18
3	90	19.128480603999	19
3	104	24.005459366852	20
3	105	24.00892363145	21
3	112	24.068417961371	22
3	113	24.117413996868	23
3	122	25.205082242439	24
3	123	25.403044314126	25
3	126	26.962525400462	26
3	131	28.225086914251	27
3	140	30.005459366852	28
3	141	30.00892363145	29
3	148	30.068417961371	30
3	149	30.117413996868	31
3	156	32.306228362518	32
3	159	33.516830857944	33
3	170	36.005459366852	34
3	171	36.00892363145	35
3	178	36.068417961371	36
3	179	36.117413996868	37
3	187	37.649931324574	38
3	200	42.005459366852	39
3	201	42.00892363145	40
3	208	42.068417961371	41
3	209	42.117413996868	42
3	230	48.005459366852	43
3	231	48.00892363145	44
3	238	48.068417961371	45
3	241	48.117413996868	46
3	246	49.563411501972	47
3	258	53.681040210742	48
3	263	54.005459366852	49
3	264	54.00892363145	50
3	271	54.068417961371	51
3	272	54.117413996868	52
3	279	56.163235998259	53
3	284	56.602409743083	54
3	285	56.775862864761	55
3	299	60.005459366852	56
3	300	60.00892363145	57
3	307	60.068417961371	58
3	308	60.117413996868	59
3	312	63.050426574888	60
3	318	64.368446134854	61
3	329	66.005459366852	62
3	330	66.00892363145	63
3	337	66.068417961371	64
3	338	66.117413996868	65
3	354	70.680406225305	66
3	359	72.005459366852	67
3	360	72.00892363145	68
3	367	72.068417961371	69
3	368	72.117413996868	70
3	372	74.788668720931	71
3	380	75.055852058966	72
3	381	75.075573935469	73
3	387	77.719404466416	74
3	392	78.005459366852	75
3	393	78.00892363145	76
3	400	78.068417961371	77
3	401	78.117413996868	78
3	411	81.874117705269	79
3	421	84.005459366852	80
3	422	84.00892363145	81
3	429	84.068417961371	82
3	430	84.117413996868	83
3	444	88.148681415396	84
3	452	90.005459366852	85
3	453	90.00892363145	86
3	460	90.068417961371	87
3	461	90.117413996868	88
3	465	91.086960945134	89
3	471	91.797400948638	90
3	485	96.005459366852	91
3	486	96.00892363145	92
3	493	96.068417961371	93
3	494	96.117413996868	94
3	507	100.010819781984	95
3	510	100.69780883565	96
3	518	102.005459366852	97
3	519	102.00892363145	98
3	526	102.068417961371	99
3	527	102.117413996868	100
3	537	105.87539743086	101
3	548	108.005459366852	102
3	549	108.00892363145	103
3	557	108.068417961371	104
3	559	108.117413996868	105
3	570	112.461772793358	106
3	573	112.914395671971	107
3	576	113.246936255904	108
3	581	114.005459366852	109
3	582	114.00892363145	110
3	589	114.068417961371	111
3	590	114.117413996868	112
3	597	116.634317012994	113
3	603	119.521499966031	114
3	614	120.005459366852	115
3	615	120.00892363145	116
3	622	120.068417961371	117
3	623	120.117413996868	118
3	633	124.946065628499	119
3	644	126.005459366852	120
3	645	126.00892363145	121
3	652	126.068417961371	122
3	653	126.117413996868	123
3	660	128.492881679526	124
3	666	130.664966888947	125
3	673	132.005459366852	126
3	674	132.00892363145	127
3	681	132.068417961371	128
3	683	132.117413996868	129
3	687	133.257814244004	130
3	702	138.00892363145	131
3	705	138.0178472629	132
3	710	138.068417961371	133
3	712	138.117413996868	134
3	714	138.126337628318	135
3	721	138.987816007524	136
3	728	139.916650500861	137
3	729	139.977683250283	138
3	734	140.0178472629	139
3	736	140.126337628318	140
3	739	141.070388636415	141
3	742	141.569562859509	142
3	746	142.0178472629	143
3	748	142.126337628318	144
3	751	142.5178472629	145
3	758	142.626337628318	146
3	769	143.13984380552	147
3	770	143.140443753709	148
3	771	143.140937670164	149
3	772	143.228803883533	150
3	773	143.23418173982	151
3	776	144.0178472629	152
3	778	144.126337628318	153
3	783	146.0178472629	154
3	785	146.126337628318	155
3	789	147.0178472629	156
3	796	147.126337628318	157
3	807	147.63984380552	158
3	808	147.640443753709	159
3	809	147.640937670164	160
3	810	147.728803883533	161
3	811	147.73418173982	162
3	814	148.0178472629	163
3	816	148.126337628318	164
3	821	150.0178472629	165
3	823	150.126337628318	166
3	826	151.5178472629	167
3	833	151.626337628318	168
3	847	152.0178472629	169
3	849	152.126337628318	170
3	850	152.13984380552	171
3	851	152.140443753709	172
3	852	152.140937670164	173
3	853	152.228803883533	174
3	854	152.23418173982	175
3	857	154.0178472629	176
3	859	154.126337628318	177
3	866	156.0178472629	178
3	867	156.0178472629	179
3	875	156.126337628318	180
3	876	156.126337628318	181
3	887	156.63984380552	182
3	888	156.640443753709	183
3	889	156.640937670164	184
3	890	156.728803883533	185
3	891	156.73418173982	186
3	895	158.0178472629	187
3	897	158.126337628318	188
3	902	160.0178472629	189
3	904	160.126337628318	190
3	907	160.5178472629	191
3	914	160.626337628318	192
3	925	161.13984380552	193
3	926	161.140443753709	194
3	927	161.140937670164	195
3	928	161.228803883533	196
3	929	161.23418173982	197
3	933	162.0178472629	198
3	935	162.126337628318	199
3	938	164.0178472629	200
3	940	164.126337628318	201
3	945	165.0178472629	202
3	952	165.126337628318	203
3	963	165.63984380552	204
3	964	165.640443753709	205
3	965	165.640937670164	206
3	966	165.728803883533	207
3	967	165.73418173982	208
3	970	166.0178472629	209
3	972	166.126337628318	210
3	976	168.0178472629	211
3	978	168.126337628318	212
3	981	169.5178472629	213
3	988	169.626337628318	214
3	1003	170.0178472629	215
3	1005	170.126337628318	216
3	1006	170.13984380552	217
3	1007	170.140443753709	218
3	1008	170.140937670164	219
3	1009	170.228803883533	220
3	1010	170.23418173982	221
3	1014	172.0178472629	222
3	1016	172.126337628318	223
3	1021	174.0178472629	224
3	1022	174.0178472629	225
3	1030	174.126337628318	226
3	1031	174.126337628318	227
3	1042	174.63984380552	228
3	1043	174.640443753709	229
3	1044	174.640937670164	230
3	1045	174.728803883533	231
3	1046	174.73418173982	232
3	1051	176.0178472629	233
3	1053	176.126337628318	234
3	1057	178.0178472629	235
3	1059	178.126337628318	236
3	1062	178.5178472629	237
3	1069	178.626337628318	238
3	1080	179.13984380552	239
3	1081	179.140443753709	240
3	1082	179.140937670164	241
3	1083	179.228803883533	242
3	1084	179.23418173982	243
3	1089	180.0178472629	244
3	1091	180.126337628318	245
3	1095	182.0178472629	246
3	1097	182.126337628318	247
3	1100	183.0178472629	248
3	1107	183.126337628318	249
3	1118	183.63984380552	250
3	1119	183.640443753709	251
3	1120	183.640937670164	252
3	1121	183.728803883533	253
3	1122	183.73418173982	254
3	1125	184.0178472629	255
3	1127	184.126337628318	256
3	1132	186.0178472629	257
3	1134	186.126337628318	258
3	1138	187.5178472629	259
3	1145	187.626337628318	260
3	1158	188.0178472629	261
3	1160	188.126337628318	262
3	1161	188.13984380552	263
3	1162	188.140443753709	264
3	1163	188.140937670164	265
3	1164	188.228803883533	266
3	1165	188.23418173982	267
3	1170	190.0178472629	268
3	1172	190.126337628318	269
3	1178	192.0178472629	270
3	1179	192.0178472629	271
3	1187	192.126337628318	272
3	1188	192.126337628318	273
3	1199	192.63984380552	274
3	1200	192.640443753709	275
3	1201	192.640937670164	276
3	1202	192.728803883533	277
3	1203	192.73418173982	278
3	1206	194.0178472629	279
3	1208	194.126337628318	280
3	1213	196.0178472629	281
3	1215	196.126337628318	282
3	1218	196.5178472629	283
3	1225	196.626337628318	284
3	1237	197.13984380552	285
3	1238	197.140443753709	286
3	1239	197.140937670164	287
3	1240	197.228803883533	288
3	1241	197.23418173982	289
3	1244	198.0178472629	290
3	1246	198.126337628318	291
3	1251	200.0178472629	292
3	1253	200.126337628318	293
3	1256	201.0178472629	294
3	1263	201.126337628318	295
3	1274	201.63984380552	296
3	1275	201.640443753709	297
3	1276	201.640937670164	298
3	1277	201.728803883533	299
3	1278	201.73418173982	300
3	1282	202.0178472629	301
3	1284	202.126337628318	302
3	1287	204.0178472629	303
3	1289	204.126337628318	304
3	1294	205.5178472629	305
3	1301	205.626337628318	306
3	1314	206.0178472629	307
3	1316	206.126337628318	308
3	1317	206.13984380552	309
3	1318	206.140443753709	310
3	1319	206.140937670164	311
3	1320	206.228803883533	312
3	1321	206.23418173982	313
3	1325	208.0178472629	314
3	1327	208.126337628318	315
3	1334	210.0178472629	316
3	1335	210.0178472629	317
3	1343	210.126337628318	318
3	1344	210.126337628318	319
3	1355	210.63984380552	320
3	1356	210.640443753709	321
3	1357	210.640937670164	322
3	1358	210.728803883533	323
3	1359	210.73418173982	324
3	1363	212.0178472629	325
3	1365	212.126337628318	326
3	1368	214.0178472629	327
3	1370	214.126337628318	328
3	1373	214.5178472629	329
3	1380	214.626337628318	330
3	1393	215.13984380552	331
3	1394	215.140443753709	332
3	1395	215.140937670164	333
3	1396	215.228803883533	334
3	1397	215.23418173982	335
3	1400	216.0178472629	336
3	1402	216.126337628318	337
3	1406	218.0178472629	338
3	1408	218.126337628318	339
3	1411	219.0178472629	340
3	1418	219.126337628318	341
3	1429	219.63984380552	342
3	1430	219.640443753709	343
3	1431	219.640937670164	344
3	1432	219.728803883533	345
3	1433	219.73418173982	346
3	1438	220.0178472629	347
3	1440	220.126337628318	348
3	1444	222.0178472629	349
3	1446	222.126337628318	350
3	1449	223.5178472629	351
3	1456	223.626337628318	352
3	1469	224.0178472629	353
3	1471	224.126337628318	354
3	1472	224.13984380552	355
3	1473	224.140443753709	356
3	1474	224.140937670164	357
3	1475	224.228803883533	358
3	1476	224.23418173982	359
3	1481	226.0178472629	360
3	1483	226.126337628318	361
3	1489	228.0178472629	362
3	1490	228.0178472629	363
3	1498	228.126337628318	364
3	1499	228.126337628318	365
3	1510	228.63984380552	366
3	1511	228.640443753709	367
3	1512	228.640937670164	368
3	1513	228.728803883533	369
3	1514	228.73418173982	370
3	1519	230.0178472629	371
3	1521	230.126337628318	372
3	1525	232.0178472629	373
3	1527	232.126337628318	374
3	1530	232.5178472629	375
3	1537	232.626337628318	376
3	1548	233.13984380552	377
3	1549	233.140443753709	378
3	1550	233.140937670164	379
3	1551	233.228803883533	380
3	1552	233.23418173982	381
3	1555	234.0178472629	382
3	1557	234.126337628318	383
3	1562	236.0178472629	384
3	1564	236.126337628318	385
3	1568	237.0178472629	386
3	1575	237.126337628318	387
3	1586	237.63984380552	388
3	1587	237.640443753709	389
3	1588	237.640937670164	390
3	1589	237.728803883533	391
3	1590	237.73418173982	392
3	1593	238.0178472629	393
3	1595	238.126337628318	394
3	1600	240.0178472629	395
3	1602	240.126337628318	396
3	1605	241.5178472629	397
3	1612	241.626337628318	398
3	1626	242.0178472629	399
3	1628	242.126337628318	400
3	1629	242.13984380552	401
3	1630	242.140443753709	402
3	1631	242.140937670164	403
3	1632	242.228803883533	404
3	1633	242.23418173982	405
3	1636	244.0178472629	406
3	1638	244.126337628318	407
3	1645	246.0178472629	408
3	1646	246.0178472629	409
3	1654	246.126337628318	410
3	1655	246.126337628318	411
3	1666	246.63984380552	412
3	1667	246.640443753709	413
3	1668	246.640937670164	414
3	1669	246.728803883533	415
3	1670	246.73418173982	416
3	1674	248.0178472629	417
3	1676	248.126337628318	418
3	1681	250.0178472629	419
3	1683	250.126337628318	420
3	1686	250.5178472629	421
3	1693	250.626337628318	422
3	1704	251.13984380552	423
3	1705	251.140443753709	424
3	1706	251.140937670164	425
3	1707	251.228803883533	426
3	1708	251.23418173982	427
3	1712	252.0178472629	428
3	1714	252.126337628318	429
3	1717	254.0178472629	430
3	1719	254.126337628318	431
3	1724	255.0178472629	432
3	1731	255.126337628318	433
3	1742	255.63984380552	434
3	1743	255.640443753709	435
3	1744	255.640937670164	436
3	1745	255.728803883533	437
3	1746	255.73418173982	438
3	1749	256.0178472629	439
3	1751	256.126337628318	440
3	1755	258.0178472629	441
3	1757	258.126337628318	442
3	1760	259.5178472629	443
3	1767	259.626337628318	444
3	1782	260.0178472629	445
3	1784	260.126337628318	446
3	1785	260.13984380552	447
3	1786	260.140443753709	448
3	1787	260.140937670164	449
3	1788	260.228803883533	450
3	1789	260.23418173982	451
3	1793	262.0178472629	452
3	1795	262.126337628318	453
3	1800	264.0178472629	454
3	1801	264.0178472629	455
3	1809	264.126337628318	456
3	1810	264.126337628318	457
3	1821	264.63984380552	458
3	1822	264.640443753709	459
3	1823	264.640937670164	460
3	1824	264.728803883533	461
3	1825	264.73418173982	462
3	1830	266.0178472629	463
3	1832	266.126337628318	464
3	1836	268.0178472629	465
3	1838	268.126337628318	466
3	1841	268.5178472629	467
3	1848	268.626337628318	468
3	1859	269.13984380552	469
3	1860	269.140443753709	470
3	1861	269.140937670164	471
3	1862	269.228803883533	472
3	1863	269.23418173982	473
3	1868	270.0178472629	474
3	1870	270.126337628318	475
3	1874	272.0178472629	476
3	1876	272.126337628318	477
3	1879	273.0178472629	478
3	1886	273.126337628318	479
3	1897	273.63984380552	480
3	1898	273.640443753709	481
3	1899	273.640937670164	482
3	1900	273.728803883533	483
3	1901	273.73418173982	484
3	1904	274.0178472629	485
3	1906	274.126337628318	486
3	1911	276.0178472629	487
3	1913	276.126337628318	488
3	1917	277.5178472629	489
3	1924	277.626337628318	490
3	1937	278.0178472629	491
3	1939	278.126337628318	492
3	1940	278.13984380552	493
3	1941	278.140443753709	494
3	1942	278.140937670164	495
3	1943	278.228803883533	496
3	1944	278.23418173982	497
3	1949	280.0178472629	498
3	1951	280.126337628318	499
3	1957	282.0178472629	500
3	1958	282.0178472629	501
3	1966	282.126337628318	502
3	1967	282.126337628318	503
3	1978	282.63984380552	504
3	1979	282.640443753709	505
3	1980	282.640937670164	506
3	1981	282.728803883533	507
3	1982	282.73418173982	508
3	1985	284.0178472629	509
3	1987	284.126337628318	510
3	1992	286.0178472629	511
3	1994	286.126337628318	512
3	1997	286.5178472629	513
3	2004	286.626337628318	514
3	2016	287.13984380552	515
3	2017	287.140443753709	516
3	2018	287.140937670164	517
3	2019	287.228803883533	518
3	2020	287.23418173982	519
3	2023	288.0178472629	520
3	2025	288.126337628318	521
3	2030	290.0178472629	522
3	2032	290.126337628318	523
3	2035	291.0178472629	524
3	2042	291.126337628318	525
3	2053	291.63984380552	526
3	2054	291.640443753709	527
3	2055	291.640937670164	528
3	2056	291.728803883533	529
3	2057	291.73418173982	530
3	2061	292.0178472629	531
3	2063	292.126337628318	532
3	2066	294.0178472629	533
3	2068	294.126337628318	534
3	2073	295.5178472629	535
3	2080	295.626337628318	536
3	2093	296.0178472629	537
3	2095	296.126337628318	538
3	2096	296.13984380552	539
3	2097	296.140443753709	540
3	2098	296.140937670164	541
3	2099	296.228803883533	542
3	2100	296.23418173982	543
3	2104	298.0178472629	544
3	2106	298.126337628318	545
3	2113	300.0178472629	546
3	2114	300.0178472629	547
3	2122	300.126337628318	548
3	2123	300.126337628318	549
3	2134	300.63984380552	550
3	2135	300.640443753709	551
3	2136	300.640937670164	552
3	2137	300.728803883533	553
3	2138	300.73418173982	554
3	2142	302.0178472629	555
3	2144	302.126337628318	556
3	2147	304.0178472629	557
3	2149	304.126337628318	558
3	2152	304.5178472629	559
3	2159	304.626337628318	560
3	2172	305.13984380552	561
3	2173	305.140443753709	562
3	2174	305.140937670164	563
3	2175	305.228803883533	564
3	2176	305.23418173982	565
3	2179	306.0178472629	566
3	2181	306.126337628318	567
3	2186	308.0178472629	568
3	2188	308.126337628318	569
3	2191	309.0178472629	570
3	2198	309.126337628318	571
3	2209	309.63984380552	572
3	2210	309.640443753709	573
3	2211	309.640937670164	574
3	2212	309.728803883533	575
3	2213	309.73418173982	576
3	2218	310.0178472629	577
3	2220	310.126337628318	578
3	2223	312.0178472629	579
3	2225	312.126337628318	580
3	2229	313.5178472629	581
3	2236	313.626337628318	582
3	2249	314.0178472629	583
3	2251	314.126337628318	584
3	2252	314.13984380552	585
3	2253	314.140443753709	586
3	2254	314.140937670164	587
3	2255	314.228803883533	588
3	2256	314.23418173982	589
3	2261	316.0178472629	590
3	2263	316.126337628318	591
3	2269	318.0178472629	592
3	2270	318.0178472629	593
3	2278	318.126337628318	594
3	2279	318.126337628318	595
3	2290	318.63984380552	596
3	2291	318.640443753709	597
3	2292	318.640937670164	598
3	2293	318.728803883533	599
3	2294	318.73418173982	600
3	2299	320.0178472629	601
3	2301	320.126337628318	602
3	2304	322.0178472629	603
3	2306	322.126337628318	604
3	2309	322.5178472629	605
3	2316	322.626337628318	606
3	2328	323.13984380552	607
3	2329	323.140443753709	608
3	2330	323.140937670164	609
3	2331	323.228803883533	610
3	2332	323.23418173982	611
3	2335	324.0178472629	612
3	2337	324.126337628318	613
3	2342	326.0178472629	614
3	2344	326.126337628318	615
3	2347	327.0178472629	616
3	2354	327.126337628318	617
3	2365	327.63984380552	618
3	2366	327.640443753709	619
3	2367	327.640937670164	620
3	2368	327.728803883533	621
3	2369	327.73418173982	622
3	2373	328.0178472629	623
3	2375	328.126337628318	624
3	2380	330.0178472629	625
3	2382	330.126337628318	626
3	2385	331.5178472629	627
3	2392	331.626337628318	628
3	2405	332.0178472629	629
3	2407	332.126337628318	630
3	2408	332.13984380552	631
3	2409	332.140443753709	632
3	2410	332.140937670164	633
3	2411	332.228803883533	634
3	2412	332.23418173982	635
3	2416	334.0178472629	636
3	2418	334.126337628318	637
3	2425	336.0178472629	638
3	2426	336.0178472629	639
3	2434	336.126337628318	640
3	2435	336.126337628318	641
3	2446	336.63984380552	642
3	2447	336.640443753709	643
3	2448	336.640937670164	644
3	2449	336.728803883533	645
3	2450	336.73418173982	646
3	2454	338.0178472629	647
3	2456	338.126337628318	648
3	2461	340.0178472629	649
3	2463	340.126337628318	650
3	2466	340.5178472629	651
3	2473	340.626337628318	652
3	2484	341.13984380552	653
3	2485	341.140443753709	654
3	2486	341.140937670164	655
3	2487	341.228803883533	656
3	2488	341.23418173982	657
3	2491	342.0178472629	658
3	2493	342.126337628318	659
3	2497	344.0178472629	660
3	2499	344.126337628318	661
3	2504	345.0178472629	662
3	2511	345.126337628318	663
3	2522	345.63984380552	664
3	2523	345.640443753709	665
3	2524	345.640937670164	666
3	2525	345.728803883533	667
3	2526	345.73418173982	668
3	2529	346.0178472629	669
3	2531	346.126337628318	670
3	2535	348.0178472629	671
3	2537	348.126337628318	672
3	2540	349.5178472629	673
3	2547	349.626337628318	674
3	2562	350.0178472629	675
3	2564	350.126337628318	676
3	2565	350.13984380552	677
3	2566	350.140443753709	678
3	2567	350.140937670164	679
3	2568	350.228803883533	680
3	2569	350.23418173982	681
3	2572	352.0178472629	682
3	2574	352.126337628318	683
3	2580	354.0178472629	684
3	2581	354.0178472629	685
3	2589	354.126337628318	686
3	2590	354.126337628318	687
3	2601	354.63984380552	688
3	2602	354.640443753709	689
3	2603	354.640937670164	690
3	2604	354.728803883533	691
3	2605	354.73418173982	692
3	2610	356.0178472629	693
3	2612	356.126337628318	694
3	2616	358.0178472629	695
3	2618	358.126337628318	696
3	2621	358.5178472629	697
3	2628	358.626337628318	698
3	2639	359.13984380552	699
3	2640	359.140443753709	700
3	2641	359.140937670164	701
3	2642	359.228803883533	702
3	2643	359.23418173982	703
3	2648	360.0178472629	704
3	2650	360.126337628318	705
3	2653	362.0178472629	706
3	2655	362.126337628318	707
3	2659	363.0178472629	708
3	2666	363.126337628318	709
3	2677	363.63984380552	710
3	2678	363.640443753709	711
3	2679	363.640937670164	712
3	2680	363.728803883533	713
3	2681	363.73418173982	714
3	2684	364.0178472629	715
3	2686	364.126337628318	716
3	2691	366.0178472629	717
3	2693	366.126337628318	718
3	2696	367.5178472629	719
3	2703	367.626337628318	720
3	2717	368.0178472629	721
3	2719	368.126337628318	722
3	2720	368.13984380552	723
3	2721	368.140443753709	724
3	2722	368.140937670164	725
3	2723	368.228803883533	726
3	2724	368.23418173982	727
3	2729	370.0178472629	728
3	2731	370.126337628318	729
3	2736	372.0178472629	730
3	2737	372.0178472629	731
3	2745	372.126337628318	732
3	2746	372.126337628318	733
3	2757	372.63984380552	734
3	2758	372.640443753709	735
3	2759	372.640937670164	736
3	2760	372.728803883533	737
3	2761	372.73418173982	738
3	2765	374.0178472629	739
3	2767	374.126337628318	740
3	2772	376.0178472629	741
3	2774	376.126337628318	742
3	2777	376.5178472629	743
3	2784	376.626337628318	744
3	2795	377.13984380552	745
3	2796	377.140443753709	746
3	2797	377.140937670164	747
3	2798	377.228803883533	748
3	2799	377.23418173982	749
3	2803	378.0178472629	750
3	2805	378.126337628318	751
3	2810	380.0178472629	752
3	2812	380.126337628318	753
3	2815	381.0178472629	754
3	2822	381.126337628318	755
3	2833	381.63984380552	756
3	2834	381.640443753709	757
3	2835	381.640937670164	758
3	2836	381.728803883533	759
3	2837	381.73418173982	760
3	2840	382.0178472629	761
3	2842	382.126337628318	762
3	2846	384.0178472629	763
3	2848	384.126337628318	764
3	2853	385.5178472629	765
3	2860	385.626337628318	766
3	2873	386.0178472629	767
3	2875	386.126337628318	768
3	2876	386.13984380552	769
3	2877	386.140443753709	770
3	2878	386.140937670164	771
3	2879	386.228803883533	772
3	2880	386.23418173982	773
3	2884	388.0178472629	774
3	2886	388.126337628318	775
3	2893	390.0178472629	776
3	2894	390.0178472629	777
3	2902	390.126337628318	778
3	2903	390.126337628318	779
3	2914	390.63984380552	780
3	2915	390.640443753709	781
3	2916	390.640937670164	782
3	2917	390.728803883533	783
3	2918	390.73418173982	784
3	2921	392.0178472629	785
3	2923	392.126337628318	786
3	2927	394.0178472629	787
3	2929	394.126337628318	788
3	2932	394.5178472629	789
3	2939	394.626337628318	790
3	2952	395.13984380552	791
3	2953	395.140443753709	792
3	2954	395.140937670164	793
3	2955	395.228803883533	794
3	2956	395.23418173982	795
3	2959	396.0178472629	796
3	2961	396.126337628318	797
3	2965	398.0178472629	798
3	2967	398.126337628318	799
3	2970	399.0178472629	800
3	2977	399.126337628318	801
3	2988	399.63984380552	802
3	2989	399.640443753709	803
3	2990	399.640937670164	804
3	2991	399.728803883533	805
3	2992	399.73418173982	806
3	2997	400.0178472629	807
3	2999	400.126337628318	808
3	3002	402.0178472629	809
3	3004	402.126337628318	810
3	3008	403.5178472629	811
3	3015	403.626337628318	812
3	3028	404.0178472629	813
3	3030	404.126337628318	814
3	3031	404.13984380552	815
3	3032	404.140443753709	816
3	3033	404.140937670164	817
3	3034	404.228803883533	818
3	3035	404.23418173982	819
3	3040	406.0178472629	820
3	3042	406.126337628318	821
3	3048	408.0178472629	822
3	3049	408.0178472629	823
3	3057	408.126337628318	824
3	3058	408.126337628318	825
3	3069	408.63984380552	826
3	3070	408.640443753709	827
3	3071	408.640937670164	828
3	3072	408.728803883533	829
3	3073	408.73418173982	830
3	3078	410.0178472629	831
3	3080	410.126337628318	832
3	3083	412.0178472629	833
3	3085	412.126337628318	834
3	3088	412.5178472629	835
3	3095	412.626337628318	836
3	3107	413.13984380552	837
3	3108	413.140443753709	838
3	3109	413.140937670164	839
3	3110	413.228803883533	840
3	3111	413.23418173982	841
3	3114	414.0178472629	842
3	3116	414.126337628318	843
3	3121	416.0178472629	844
3	3123	416.126337628318	845
3	3126	417.0178472629	846
3	3133	417.126337628318	847
3	3144	417.63984380552	848
3	3145	417.640443753709	849
3	3146	417.640937670164	850
3	3147	417.728803883533	851
3	3148	417.73418173982	852
3	3152	418.0178472629	853
3	3154	418.126337628318	854
3	3159	420.0178472629	855
3	3161	420.126337628318	856
3	3164	421.5178472629	857
3	3171	421.626337628318	858
3	3184	422.0178472629	859
3	3186	422.126337628318	860
3	3187	422.13984380552	861
3	3188	422.140443753709	862
3	3189	422.140937670164	863
3	3190	422.228803883533	864
3	3191	422.23418173982	865
3	3195	424.0178472629	866
3	3197	424.126337628318	867
3	3204	426.0178472629	868
3	3205	426.0178472629	869
3	3213	426.126337628318	870
3	3214	426.126337628318	871
3	3225	426.63984380552	872
3	3226	426.640443753709	873
3	3227	426.640937670164	874
3	3228	426.728803883533	875
3	3229	426.73418173982	876
3	3233	428.0178472629	877
3	3235	428.126337628318	878
3	3240	430.0178472629	879
3	3242	430.126337628318	880
3	3245	430.5178472629	881
3	3252	430.626337628318	882
3	3263	431.13984380552	883
3	3264	431.140443753709	884
3	3265	431.140937670164	885
3	3266	431.228803883533	886
3	3267	431.23418173982	887
3	3270	432.0178472629	888
3	3272	432.126337628318	889
3	3276	434.0178472629	890
3	3278	434.126337628318	891
3	3283	435.0178472629	892
3	3290	435.126337628318	893
3	3301	435.63984380552	894
3	3302	435.640443753709	895
3	3303	435.640937670164	896
3	3304	435.728803883533	897
3	3305	435.73418173982	898
3	3308	436.0178472629	899
3	3310	436.126337628318	900
3	3314	438.0178472629	901
3	3316	438.126337628318	902
3	3319	439.5178472629	903
3	3326	439.626337628318	904
3	3341	440.0178472629	905
3	3343	440.126337628318	906
3	3344	440.13984380552	907
3	3345	440.140443753709	908
3	3346	440.140937670164	909
3	3347	440.228803883533	910
3	3348	440.23418173982	911
3	3351	442.0178472629	912
3	3353	442.126337628318	913
3	3359	444.0178472629	914
3	3360	444.0178472629	915
3	3368	444.126337628318	916
3	3369	444.126337628318	917
3	3380	444.63984380552	918
3	3381	444.640443753709	919
3	3382	444.640937670164	920
3	3383	444.728803883533	921
3	3384	444.73418173982	922
3	3389	446.0178472629	923
3	3391	446.126337628318	924
3	3395	448.0178472629	925
3	3397	448.126337628318	926
3	3400	448.5178472629	927
3	3407	448.626337628318	928
3	3418	449.13984380552	929
3	3419	449.140443753709	930
3	3420	449.140937670164	931
3	3421	449.228803883533	932
3	3422	449.23418173982	933
3	3427	450.0178472629	934
3	3429	450.126337628318	935
3	3432	452.0178472629	936
3	3434	452.126337628318	937
3	3438	453.0178472629	938
3	3445	453.126337628318	939
3	3456	453.63984380552	940
3	3457	453.640443753709	941
3	3458	453.640937670164	942
3	3459	453.728803883533	943
3	3460	453.73418173982	944
3	3463	454.0178472629	945
3	3465	454.126337628318	946
3	3470	456.0178472629	947
3	3472	456.126337628318	948
3	3475	457.5178472629	949
3	3482	457.626337628318	950
3	3496	458.0178472629	951
3	3498	458.126337628318	952
3	3499	458.13984380552	953
3	3500	458.140443753709	954
3	3501	458.140937670164	955
3	3502	458.228803883533	956
3	3503	458.23418173982	957
3	3508	460.0178472629	958
3	3510	460.126337628318	959
3	3515	462.0178472629	960
3	3516	462.0178472629	961
3	3524	462.126337628318	962
3	3525	462.126337628318	963
3	3536	462.63984380552	964
3	3537	462.640443753709	965
3	3538	462.640937670164	966
3	3539	462.728803883533	967
3	3540	462.73418173982	968
3	3544	464.0178472629	969
3	3546	464.126337628318	970
3	3551	466.0178472629	971
3	3553	466.126337628318	972
3	3556	466.5178472629	973
3	3563	466.626337628318	974
3	3574	467.13984380552	975
3	3575	467.140443753709	976
3	3576	467.140937670164	977
3	3577	467.228803883533	978
3	3578	467.23418173982	979
3	3582	468.0178472629	980
3	3584	468.126337628318	981
3	3589	470.0178472629	982
3	3591	470.126337628318	983
3	3594	471.0178472629	984
3	3601	471.126337628318	985
3	3612	471.63984380552	986
3	3613	471.640443753709	987
3	3614	471.640937670164	988
3	3615	471.728803883533	989
3	3616	471.73418173982	990
3	3619	472.0178472629	991
3	3621	472.126337628318	992
3	3625	474.0178472629	993
3	3627	474.126337628318	994
3	3632	475.5178472629	995
3	3639	475.626337628318	996
3	3652	476.0178472629	997
3	3654	476.126337628318	998
3	3655	476.13984380552	999
3	3656	476.140443753709	1000
3	3657	476.140937670164	1001
3	3658	476.228803883533	1002
3	3659	476.23418173982	1003
3	3663	478.0178472629	1004
3	3665	478.126337628318	1005
3	3672	480.0178472629	1006
3	3673	480.0178472629	1007
3	3681	480.126337628318	1008
3	3682	480.126337628318	1009
3	3693	480.63984380552	1010
3	3694	480.640443753709	1011
3	3695	480.640937670164	1012
3	3696	480.728803883533	1013
3	3697	480.73418173982	1014
3	3700	482.0178472629	1015
3	3702	482.126337628318	1016
3	3706	484.0178472629	1017
3	3708	484.126337628318	1018
3	3711	484.5178472629	1019
3	3718	484.626337628318	1020
3	3731	485.13984380552	1021
3	3732	485.140443753709	1022
3	3733	485.140937670164	1023
3	3734	485.228803883533	1024
3	3735	485.23418173982	1025
3	3738	486.0178472629	1026
3	3740	486.126337628318	1027
3	3744	488.0178472629	1028
3	3746	488.126337628318	1029
3	3749	489.0178472629	1030
3	3756	489.126337628318	1031
3	3767	489.63984380552	1032
3	3768	489.640443753709	1033
3	3769	489.640937670164	1034
3	3770	489.728803883533	1035
3	3771	489.73418173982	1036
3	3776	490.0178472629	1037
3	3778	490.126337628318	1038
3	3781	492.0178472629	1039
3	3783	492.126337628318	1040
3	3787	493.5178472629	1041
3	3794	493.626337628318	1042
3	3807	494.0178472629	1043
3	3809	494.126337628318	1044
3	3810	494.13984380552	1045
3	3811	494.140443753709	1046
3	3812	494.140937670164	1047
3	3813	494.228803883533	1048
3	3814	494.23418173982	1049
3	3819	496.0178472629	1050
3	3821	496.126337628318	1051
3	3827	498.0178472629	1052
3	3828	498.0178472629	1053
3	3836	498.126337628318	1054
3	3837	498.126337628318	1055
3	3848	498.63984380552	1056
3	3849	498.640443753709	1057
3	3850	498.640937670164	1058
3	3851	498.728803883533	1059
3	3852	498.73418173982	1060
3	3857	500.0178472629	1061
3	3859	500.126337628318	1062
3	3862	502.0178472629	1063
3	3864	502.126337628318	1064
3	3867	502.5178472629	1065
3	3874	502.626337628318	1066
3	3886	503.13984380552	1067
3	3887	503.140443753709	1068
3	3888	503.140937670164	1069
3	3889	503.228803883533	1070
3	3890	503.23418173982	1071
3	3893	504.0178472629	1072
3	3895	504.126337628318	1073
3	3900	506.0178472629	1074
3	3902	506.126337628318	1075
3	3905	507.0178472629	1076
3	3912	507.126337628318	1077
3	3923	507.63984380552	1078
3	3924	507.640443753709	1079
3	3925	507.640937670164	1080
3	3926	507.728803883533	1081
3	3927	507.73418173982	1082
3	3931	508.0178472629	1083
3	3933	508.126337628318	1084
3	3938	510.0178472629	1085
3	3940	510.126337628318	1086
3	3943	511.5178472629	1087
3	3950	511.626337628318	1088
3	3963	512.0178472629	1089
3	3965	512.126337628318	1090
3	3966	512.13984380552	1091
3	3967	512.140443753709	1092
3	3968	512.140937670164	1093
3	3969	512.228803883533	1094
3	3970	512.23418173982	1095
3	3974	514.0178472629	1096
3	3976	514.126337628318	1097
3	3983	516.0178472629	1098
3	3984	516.0178472629	1099
3	3992	516.126337628318	1100
3	3993	516.126337628318	1101
3	4004	516.63984380552	1102
3	4005	516.640443753709	1103
3	4006	516.640937670164	1104
3	4007	516.728803883533	1105
3	4008	516.73418173982	1106
3	4012	518.0178472629	1107
3	4014	518.126337628318	1108
3	4019	520.0178472629	1109
3	4021	520.126337628318	1110
3	4024	520.5178472629	1111
3	4031	520.626337628318	1112
3	4042	521.13984380552	1113
3	4043	521.140443753709	1114
3	4044	521.140937670164	1115
3	4045	521.228803883533	1116
3	4046	521.23418173982	1117
3	4049	522.0178472629	1118
3	4051	522.126337628318	1119
3	4055	524.0178472629	1120
3	4057	524.126337628318	1121
3	4062	525.0178472629	1122
3	4069	525.126337628318	1123
3	4080	525.63984380552	1124
3	4081	525.640443753709	1125
3	4082	525.640937670164	1126
3	4083	525.728803883533	1127
3	4084	525.73418173982	1128
3	4087	526.0178472629	1129
3	4089	526.126337628318	1130
3	4093	528.0178472629	1131
3	4095	528.126337628318	1132
3	4098	529.5178472629	1133
3	4105	529.626337628318	1134
3	4120	530.0178472629	1135
3	4122	530.126337628318	1136
3	4123	530.13984380552	1137
3	4124	530.140443753709	1138
3	4125	530.140937670164	1139
3	4126	530.228803883533	1140
3	4127	530.23418173982	1141
3	4130	532.0178472629	1142
3	4132	532.126337628318	1143
3	4138	534.0178472629	1144
3	4139	534.0178472629	1145
3	4147	534.126337628318	1146
3	4148	534.126337628318	1147
3	4159	534.63984380552	1148
3	4160	534.640443753709	1149
3	4161	534.640937670164	1150
3	4162	534.728803883533	1151
3	4163	534.73418173982	1152
3	4168	536.0178472629	1153
3	4170	536.126337628318	1154
3	4174	538.0178472629	1155
3	4176	538.126337628318	1156
3	4179	538.5178472629	1157
3	4186	538.626337628318	1158
3	4197	539.13984380552	1159
3	4198	539.140443753709	1160
3	4199	539.140937670164	1161
3	4200	539.228803883533	1162
3	4201	539.23418173982	1163
3	4206	540.0178472629	1164
3	4208	540.126337628318	1165
3	4211	542.0178472629	1166
3	4213	542.126337628318	1167
3	4217	543.0178472629	1168
3	4224	543.126337628318	1169
3	4235	543.63984380552	1170
3	4236	543.640443753709	1171
3	4237	543.640937670164	1172
3	4238	543.728803883533	1173
3	4239	543.73418173982	1174
3	4242	544.0178472629	1175
3	4244	544.126337628318	1176
3	4249	546.0178472629	1177
3	4251	546.126337628318	1178
3	4254	547.5178472629	1179
3	4261	547.626337628318	1180
3	4275	548.0178472629	1181
3	4277	548.126337628318	1182
3	4278	548.13984380552	1183
3	4279	548.140443753709	1184
3	4280	548.140937670164	1185
3	4281	548.228803883533	1186
3	4282	548.23418173982	1187
3	4287	550.0178472629	1188
3	4289	550.126337628318	1189
3	4294	552.0178472629	1190
3	4295	552.0178472629	1191
3	4303	552.126337628318	1192
3	4304	552.126337628318	1193
3	4315	552.63984380552	1194
3	4316	552.640443753709	1195
3	4317	552.640937670164	1196
3	4318	552.728803883533	1197
3	4319	552.73418173982	1198
3	4323	554.0178472629	1199
3	4325	554.126337628318	1200
3	4330	556.0178472629	1201
3	4332	556.126337628318	1202
3	4335	556.5178472629	1203
3	4342	556.626337628318	1204
3	4353	557.13984380552	1205
3	4354	557.140443753709	1206
3	4355	557.140937670164	1207
3	4356	557.228803883533	1208
3	4357	557.23418173982	1209
3	4361	558.0178472629	1210
3	4363	558.126337628318	1211
3	4368	560.0178472629	1212
3	4370	560.126337628318	1213
3	4373	561.0178472629	1214
3	4380	561.126337628318	1215
3	4391	561.63984380552	1216
3	4392	561.640443753709	1217
3	4393	561.640937670164	1218
3	4394	561.728803883533	1219
3	4395	561.73418173982	1220
3	4398	562.0178472629	1221
3	4400	562.126337628318	1222
3	4404	564.0178472629	1223
3	4406	564.126337628318	1224
3	4411	565.5178472629	1225
3	4418	565.626337628318	1226
3	4431	566.0178472629	1227
3	4433	566.126337628318	1228
3	4434	566.13984380552	1229
3	4435	566.140443753709	1230
3	4436	566.140937670164	1231
3	4437	566.228803883533	1232
3	4438	566.23418173982	1233
3	4442	568.0178472629	1234
3	4444	568.126337628318	1235
3	4451	570.0178472629	1236
3	4452	570.0178472629	1237
3	4460	570.126337628318	1238
3	4461	570.126337628318	1239
3	4472	570.63984380552	1240
3	4473	570.640443753709	1241
3	4474	570.640937670164	1242
3	4475	570.728803883533	1243
3	4476	570.73418173982	1244
3	4479	572.0178472629	1245
3	4481	572.126337628318	1246
3	4485	574.0178472629	1247
3	4487	574.126337628318	1248
3	4490	574.5178472629	1249
3	4497	574.626337628318	1250
3	4510	575.13984380552	1251
3	4511	575.140443753709	1252
3	4512	575.140937670164	1253
3	4513	575.228803883533	1254
3	4514	575.23418173982	1255
3	4517	576.0178472629	1256
3	4519	576.126337628318	1257
3	4523	578.0178472629	1258
3	4525	578.126337628318	1259
3	4528	579.0178472629	1260
3	4535	579.126337628318	1261
3	4546	579.63984380552	1262
3	4547	579.640443753709	1263
3	4548	579.640937670164	1264
3	4549	579.728803883533	1265
3	4550	579.73418173982	1266
3	4555	580.0178472629	1267
3	4557	580.126337628318	1268
3	4560	582.0178472629	1269
3	4562	582.126337628318	1270
3	4566	583.5178472629	1271
3	4573	583.626337628318	1272
3	4586	584.0178472629	1273
3	4588	584.126337628318	1274
3	4589	584.13984380552	1275
3	4590	584.140443753709	1276
3	4591	584.140937670164	1277
3	4592	584.228803883533	1278
3	4593	584.23418173982	1279
3	4598	586.0178472629	1280
3	4600	586.126337628318	1281
3	4606	588.0178472629	1282
3	4607	588.0178472629	1283
3	4615	588.126337628318	1284
3	4616	588.126337628318	1285
3	4627	588.63984380552	1286
3	4628	588.640443753709	1287
3	4629	588.640937670164	1288
3	4630	588.728803883533	1289
3	4631	588.73418173982	1290
3	4636	590.0178472629	1291
3	4638	590.126337628318	1292
3	4641	592.0178472629	1293
3	4643	592.126337628318	1294
3	4646	592.5178472629	1295
3	4653	592.626337628318	1296
3	4665	593.13984380552	1297
3	4666	593.140443753709	1298
3	4667	593.140937670164	1299
3	4668	593.228803883533	1300
3	4669	593.23418173982	1301
3	4672	594.0178472629	1302
3	4674	594.126337628318	1303
3	4687	599.309317780385	1304
3	4695	600.0178472629	1305
3	4698	600.057632374948	1306
3	4704	600.126337628318	1307
3	4706	600.267802124644	1308
3	4714	602.093617383948	1309
3	4717	602.4536540315	1310
3	4726	605.38445382095	1311
3	4730	606.0178472629	1312
3	4733	606.02677089435	1313
3	4742	606.126337628318	1314
3	4743	606.135261259768	1315
3	4749	606.974820996187	1316
3	4757	608.037785406691	1317
3	4770	611.047390962376	1318
3	4773	611.459589861515	1319
3	4780	612.0178472629	1320
3	4783	612.02677089435	1321
3	4791	612.126337628318	1322
3	4792	612.135261259768	1323
3	4795	612.409489220403	1324
3	4799	613.249384706314	1325
3	4807	615.802838870024	1326
3	4815	617.539655720794	1327
3	4819	618.0178472629	1328
3	4822	618.02677089435	1329
3	4829	618.126337628318	1330
3	4830	618.135261259768	1331
3	4845	620.001164540804	1332
3	4846	620.166573327553	1333
3	4854	622.365324409306	1334
3	4859	622.841837111135	1335
3	4860	622.88335868285	1336
3	4864	624.0178472629	1337
3	4867	624.02677089435	1338
3	4874	624.126337628318	1339
3	4875	624.135261259768	1340
3	4881	626.44113703768	1341
3	4887	628.227061644906	1342
3	4892	628.954938119232	1343
3	4900	630.0178472629	1344
3	4903	630.02677089435	1345
3	4910	630.126337628318	1346
3	4911	630.135261259768	1347
3	4915	630.611820393182	1348
3	4923	632.316229779495	1349
3	4933	633.353395840205	1350
3	4938	634.307127504185	1351
3	4943	636.0178472629	1352
3	4946	636.02677089435	1353
3	4953	636.126337628318	1354
3	4954	636.135261259768	1355
3	4966	637.903781878946	1356
3	4970	638.376873856515	1357
3	4975	639.650830466241	1358
3	4981	640.26565464273	1359
3	4985	641.628946140831	1360
3	4988	642.0178472629	1361
3	4991	642.02677089435	1362
3	4998	642.126337628318	1363
3	4999	642.135261259768	1364
3	5013	645.725966506806	1365
3	5019	646.146857138562	1366
3	5028	646.857555457374	1367
3	5031	647.177913445255	1368
3	5035	648.0178472629	1369
3	5038	648.02677089435	1370
3	5045	648.126337628318	1371
3	5046	648.135261259768	1372
3	5062	651.584781329734	1373
3	5063	651.806032366085	1374
3	5071	653.452477155382	1375
3	5074	653.911910601895	1376
3	5077	654.0178472629	1377
3	5080	654.02677089435	1378
3	5087	654.126337628318	1379
3	5088	654.135261259768	1380
3	5097	655.806399217088	1381
3	5105	657.886098225364	1382
3	5114	660.0178472629	1383
3	5117	660.02677089435	1384
3	5126	660.126337628318	1385
3	5127	660.135261259768	1386
3	5129	660.364735957907	1387
3	5134	660.89749769107	1388
3	5140	661.676964065228	1389
3	5150	663.961234265929	1390
3	5155	664.755242976802	1391
3	5160	666.0178472629	1392
3	5163	666.02677089435	1393
3	5170	666.126337628318	1394
3	5171	666.135261259768	1395
3	5175	666.639299668034	1396
3	5179	668.715962306339	1397
3	5189	670.041300125208	1398
3	5190	670.210214052406	1399
3	5194	672.0178472629	1400
3	5197	672.02677089435	1401
3	5204	672.126337628318	1402
3	5205	672.135261259768	1403
3	5214	673.066991592307	1404
3	5217	673.556488289273	1405
3	5225	675.75496054745	1406
3	5229	676.116436165773	1407
3	5233	678.0178472629	1408
3	5236	678.02677089435	1409
3	5243	678.126337628318	1410
3	5244	678.135261259768	1411
3	5257	680.166049241309	1412
3	5260	680.473676910512	1413
3	5274	682.020765170735	1414
3	5275	682.191572206338	1415
3	5283	683.524943829497	1416
3	5286	684.0178472629	1417
3	5289	684.02677089435	1418
3	5296	684.126337628318	1419
3	5297	684.135261259768	1420
3	5309	687.390865531751	1421
3	5310	687.535275168394	1422
3	5321	690.0178472629	1423
3	5324	690.02677089435	1424
3	5332	690.121884430212	1425
3	5334	690.126337628318	1426
3	5335	690.135261259768	1427
3	5345	690.974538749163	1428
3	5349	691.294927111544	1429
3	5352	692.87897813045	1430
3	5360	694.303124334276	1431
3	5365	696.0178472629	1432
3	5368	696.02677089435	1433
3	5375	696.126337628318	1434
3	5376	696.135261259768	1435
3	5391	698.954114171015	1436
3	5394	699.064910393591	1437
3	5405	699.923382508877	1438
3	5407	700.077719619115	1439
3	5415	701.220312955515	1440
3	5418	702.0178472629	1441
3	5421	702.02677089435	1442
3	5428	702.126337628318	1443
3	5429	702.135261259768	1444
3	5434	704.297817133071	1445
3	5443	706.829963856924	1446
3	5455	708.0178472629	1447
3	5458	708.02677089435	1448
3	5465	708.126337628318	1449
3	5466	708.135261259768	1450
3	5467	708.137501576754	1451
3	5473	708.872226268591	1452
3	5485	710.033554808018	1453
3	5488	710.37788299235	1454
3	5497	714.0178472629	1455
3	5500	714.02677089435	1456
3	5508	714.126337628318	1457
3	5509	714.135261259768	1458
3	5516	714.595017320257	1459
3	5520	715.049760379279	1460
3	5523	715.721585954406	1461
3	5527	717.183974884096	1462
3	5535	719.989389996921	1463
3	5539	720.0178472629	1464
3	5542	720.02677089435	1465
3	5549	720.126337628318	1466
3	5550	720.135261259768	1467
3	5559	721.324324089406	1468
3	5566	721.796721994971	1469
3	5569	722.365000602304	1470
3	5581	726.0178472629	1471
3	5584	726.02677089435	1472
3	5591	726.126337628318	1473
3	5592	726.135261259768	1474
3	5593	726.137748462524	1475
3	5605	727.871858035536	1476
3	5609	728.236582891931	1477
3	5622	729.945225185824	1478
3	5624	730.130054065637	1479
3	5628	732.0178472629	1480
3	5631	732.02677089435	1481
3	5638	732.126337628318	1482
3	5639	732.135261259768	1483
3	5648	733.951923894815	1484
3	5662	735.086592222238	1485
3	5663	735.148841694456	1486
3	5667	737.169052306748	1487
3	5671	738.0178472629	1488
3	5674	738.02677089435	1489
3	5681	738.126337628318	1490
3	5682	738.135261259768	1491
3	5689	739.295626856871	1492
3	5693	739.896130556013	1493
3	5698	741.423405404583	1494
3	5710	744.0178472629	1495
3	5713	744.02677089435	1496
3	5714	744.035435981952	1497
3	5721	744.126337628318	1498
3	5722	744.135261259768	1499
3	5732	744.934105770081	1500
3	5736	745.37569271615	1501
3	5740	747.69796911471	1502
3	5744	749.208846917349	1503
3	5748	750.0178472629	1504
3	5751	750.02677089435	1505
3	5758	750.126337628318	1506
3	5759	750.135261259768	1507
3	5763	750.719395678206	1508
3	5767	751.973104011192	1509
3	5774	752.98920956038	1510
3	5778	753.972532824837	1511
3	5785	756.0178472629	1512
3	5788	756.02677089435	1513
3	5796	756.126337628318	1514
3	5797	756.135261259768	1515
3	5802	756.794531718771	1516
3	5806	758.521563278685	1517
3	5813	759.738157474525	1518
3	5821	760.889721446076	1519
3	5825	761.300958175885	1520
3	5830	762.0178472629	1521
3	5833	762.02677089435	1522
3	5840	762.126337628318	1523
3	5841	762.135261259768	1524
3	5842	762.138234680827	1525
3	5853	767.164285156203	1526
3	5859	767.508140756572	1527
3	5863	767.834279640021	1528
3	5869	768.0178472629	1529
3	5872	768.02677089435	1530
3	5879	768.126337628318	1531
3	5880	768.135261259768	1532
3	5882	768.218300540106	1533
3	5890	770.249801935599	1534
3	5905	774.0178472629	1535
3	5908	774.02677089435	1536
3	5915	774.076543958728	1537
3	5918	774.126337628318	1538
3	5919	774.135261259768	1539
3	5922	774.293436580671	1540
3	5929	775.273194219905	1541
3	5937	777.790114828924	1542
3	5945	779.203575514027	1543
3	5953	780.0178472629	1544
3	5956	780.02677089435	1545
3	5965	780.126337628318	1546
3	5968	780.135261259768	1547
3	5970	780.37350243995	1548
3	5975	780.988802761253	1549
3	5984	783.038247683238	1550
3	5988	785.717205402006	1551
3	5992	786.0178472629	1552
3	5995	786.02677089435	1553
3	6002	786.126337628318	1554
3	6003	786.135261259768	1555
3	6009	787.10283119026	1556
3	6011	787.26336647138	1557
3	6013	787.515324129532	1558
3	6022	790.808230965285	1559
3	6030	791.797271261285	1560
3	6033	792.0178472629	1561
3	6036	792.02677089435	1562
3	6043	792.126337628318	1563
3	6044	792.135261259768	1564
3	6049	793.537930181507	1565
3	6053	795.827072745037	1566
3	6063	797.053736560449	1567
3	6070	797.847229206396	1568
3	6071	797.87240730185	1569
3	6075	798.0178472629	1570
3	6078	798.02677089435	1571
3	6085	798.126337628318	1572
3	6086	798.135261259768	1573
3	6090	799.812493891634	1574
3	6102	803.947543342415	1575
3	6105	804.0178472629	1576
3	6108	804.02677089435	1577
3	6115	804.126337628318	1578
3	6116	804.135261259768	1579
3	6124	804.780846323465	1580
3	6130	805.617212488443	1581
3	6135	806.087057601761	1582
3	6141	807.004641930638	1583
3	6145	809.291246304471	1584
3	6149	810.0178472629	1585
3	6152	810.02677089435	1586
3	6159	810.126337628318	1587
3	6160	810.135261259768	1588
3	6176	813.004246223	1589
3	6178	813.09259493897	1590
3	6180	813.382265951776	1591
3	6188	815.37131216375	1592
3	6192	816.0178472629	1593
3	6195	816.02677089435	1594
3	6204	816.126337628318	1595
3	6205	816.135261259768	1596
3	6211	816.955547300827	1597
3	6219	819.916505025525	1598
3	6227	820.715015125806	1599
3	6232	821.152249233823	1600
3	6240	822.0178472629	1601
3	6243	822.02677089435	1602
3	6244	822.046368517398	1603
3	6251	822.126337628318	1604
3	6252	822.135261259768	1605
3	6263	826.058718087862	1606
3	6265	826.268263662163	1607
3	6269	826.82876382805	1608
3	6276	828.0178472629	1609
3	6282	828.126337628318	1610
3	6283	828.191247474934	1611
3	6294	831.000142095826	1612
3	6297	831.402421049918	1613
3	6303	833.103327538177	1614
3	6306	834.0178472629	1615
3	6313	834.126337628318	1616
3	6327	835.956300938267	1617
3	6329	836.219169032352	1618
3	6332	836.746124011974	1619
3	6347	839.94898585554	1620
3	6350	840.015586340702	1621
3	6352	840.0178472629	1622
3	6355	840.02677089435	1623
3	6362	840.126337628318	1624
3	6363	840.135261259768	1625
3	6367	842.08982697403	1626
3	6375	843.7213544016	1627
3	6387	846.0178472629	1628
3	6390	846.02677089435	1629
3	6398	846.126337628318	1630
3	6399	846.135261259768	1631
3	6400	846.175004221255	1632
3	6406	846.932774961941	1633
3	6409	847.433529936086	1634
3	6413	848.260734471045	1635
3	6422	851.491337683647	1636
3	6425	852.0178472629	1637
3	6428	852.02677089435	1638
3	6435	852.126337628318	1639
3	6436	852.135261259768	1640
3	6440	852.777232898142	1641
3	6448	853.84996358318	1642
3	6453	855.487720582591	1643
3	6460	857.214508049473	1644
3	6466	858.0178472629	1645
3	6469	858.02677089435	1646
3	6475	858.120935860198	1647
3	6477	858.126337628318	1648
3	6478	858.135261259768	1649
3	6487	859.261320965694	1650
3	6491	860.124527293307	1651
3	6502	864.0178472629	1652
3	6505	864.02677089435	1653
3	6512	864.126337628318	1654
3	6513	864.135261259768	1655
3	6515	864.201001719477	1656
3	6525	865.43862595278	1657
3	6534	866.163351809187	1658
3	6543	867.031304247741	1659
3	6544	867.041715914546	1660
3	6554	870.0178472629	1661
3	6557	870.02677089435	1662
3	6566	870.126337628318	1663
3	6567	870.135261259768	1664
3	6569	870.281067578756	1665
3	6579	873.958904535785	1666
3	6586	874.475100424692	1667
3	6591	874.796357711074	1668
3	6598	875.394461141683	1669
3	6603	876.0178472629	1670
3	6606	876.02677089435	1671
3	6615	876.126337628318	1672
3	6616	876.135261259768	1673
3	6618	876.361133438035	1674
3	6628	880.87116333831	1675
3	6635	881.835355952185	1676
3	6638	882.0178472629	1677
3	6641	882.02677089435	1678
3	6648	882.126337628318	1679
3	6649	882.135261259768	1680
3	6653	882.4362694786	1681
3	6656	882.786849040197	1682
3	6666	885.345366511872	1683
3	6669	887.145727048437	1684
3	6677	888.0178472629	1685
3	6680	888.02677089435	1686
3	6687	888.126337628318	1687
3	6688	888.135261259768	1688
3	6692	888.511405519165	1689
3	6700	889.605339234232	1690
3	6708	891.735692799911	1691
3	6718	893.855108481221	1692
3	6722	894.0178472629	1693
3	6725	894.02677089435	1694
3	6728	894.062915669676	1695
3	6733	894.126337628318	1696
3	6734	894.135261259768	1697
3	6743	895.301201700775	1698
3	6750	897.370392697565	1699
3	6755	899.198811443277	1700
3	6761	900.0178472629	1701
3	6764	900.02677089435	1702
3	6766	900.047441415416	1703
3	6774	900.126337628318	1704
3	6775	900.135261259768	1705
3	6777	900.337479379803	1706
3	6799	905.135446160898	1707
3	6800	905.252107070964	1708
3	6801	905.273947483842	1709
3	6804	906.0178472629	1710
3	6807	906.02677089435	1711
3	6814	906.126337628318	1712
3	6815	906.135261259768	1713
3	6823	907.254668001042	1714
3	6831	908.99628517513	1715
3	6836	910.617650445898	1716
3	6841	912.0178472629	1717
3	6844	912.02677089435	1718
3	6851	912.126337628318	1719
3	6852	912.135261259768	1720
3	6858	912.905429442945	1721
3	6867	914.171856622281	1722
3	6875	915.207942259867	1723
3	6882	916.692786486463	1724
3	6889	917.945128934844	1725
3	6893	918.0178472629	1726
3	6896	918.02677089435	1727
3	6903	918.126337628318	1728
3	6904	918.135261259768	1729
3	6918	920.670482906278	1730
3	6921	921.084115424806	1731
3	6928	922.772852345742	1732
3	6933	924.0178472629	1733
3	6936	924.02677089435	1734
3	6943	924.126337628318	1735
3	6944	924.135261259768	1736
3	6953	925.158847630056	1737
3	6960	926.893972694558	1738
3	6974	928.001304046045	1739
3	6975	928.116555307798	1740
3	6978	928.435536369611	1741
3	6983	930.0178472629	1742
3	6986	930.02677089435	1743
3	6993	930.126337628318	1744
3	6994	930.135261259768	1745
3	6999	933.460258269854	1746
3	7005	934.275867756172	1747
3	7013	935.114682818959	1748
3	7017	935.474534610722	1749
3	7021	936.0178472629	1750
3	7024	936.02677089435	1751
3	7038	940.550431466299	1752
3	7043	942.0178472629	1753
3	7046	942.02677089435	1754
3	7051	942.513532851833	1755
3	7056	943.517469925568	1756
3	7062	944.147664193966	1757
3	7064	944.427399180295	1758
3	7075	948.0178472629	1759
3	7078	948.02677089435	1760
3	7093	950.227730053245	1761
3	7097	951.829218541073	1762
3	7103	953.099558886553	1763
3	7112	954.0178472629	1764
3	7115	954.02677089435	1765
3	7120	954.383234369198	1766
3	7124	955.571433015301	1767
3	7133	957.322514374991	1768
3	7146	960.0178472629	1769
3	7149	960.02677089435	1770
3	7158	960.782992119501	1771
3	7159	960.915135977357	1772
3	7174	964.339069558101	1773
3	7186	966.0178472629	1774
3	7189	966.02677089435	1775
3	7194	966.084089697828	1776
3	7197	966.135261259768	1777
3	7199	966.258838939413	1778
3	7200	966.286381399205	1779
3	7211	968.084089697828	1780
3	7225	970.084089697828	1781
3	7230	970.584089697828	1782
3	7250	972.084089697828	1783
3	7260	974.084089697828	1784
3	7266	975.084089697828	1785
3	7291	976.084089697828	1786
3	7297	978.084089697828	1787
3	7303	979.584089697828	1788
3	7324	980.084089697828	1789
3	7334	982.084089697828	1790
3	7342	984.084089697828	1791
3	7343	984.084089697828	1792
3	7372	986.084089697828	1793
3	7378	988.084089697828	1794
3	7383	988.584089697828	1795
3	7410	990.084089697828	1796
3	7415	992.084089697828	1797
3	7421	993.084089697828	1798
3	7447	994.084089697828	1799
3	7453	996.084089697828	1800
3	7458	997.584089697828	1801
3	7479	998.084089697828	1802
3	7491	1000.084089697828	1803
3	7497	1002.084089697828	1804
3	7498	1002.084089697828	1805
3	7528	1004.084089697828	1806
3	7534	1006.084089697828	1807
3	7539	1006.584089697828	1808
3	7565	1008.084089697828	1809
3	7572	1010.084089697828	1810
3	7577	1011.084089697828	1811
3	7602	1012.084089697828	1812
3	7609	1014.084089697828	1813
3	7615	1015.584089697828	1814
3	7635	1016.084089697828	1815
3	7646	1018.084089697828	1816
3	7654	1020.084089697828	1817
3	7655	1020.084089697828	1818
3	7683	1022.084089697828	1819
3	7690	1024.084089697828	1820
3	7695	1024.584089697828	1821
3	7721	1026.084089697828	1822
3	7727	1028.084089697828	1823
3	7733	1029.084089697828	1824
3	7759	1030.084089697828	1825
3	7764	1032.084089697828	1826
3	7770	1033.584089697828	1827
3	7791	1034.084089697828	1828
3	7802	1036.084089697828	1829
3	7809	1038.084089697828	1830
3	7810	1038.084089697828	1831
3	7840	1040.084089697828	1832
3	7845	1042.084089697828	1833
3	7850	1042.584089697828	1834
3	7877	1044.084089697828	1835
3	7884	1046.084089697828	1836
3	7889	1047.084089697828	1837
3	7915	1048.084089697828	1838
3	7922	1050.084089697828	1839
3	7927	1051.584089697828	1840
3	7944	1052.084089697828	1841
3	7959	1054.084089697828	1842
3	7967	1056.084089697828	1843
3	7968	1056.084089697828	1844
3	7997	1058.084089697828	1845
3	8004	1060.084089697828	1846
3	8008	1060.584089697828	1847
3	8034	1062.084089697828	1848
3	8041	1064.084089697828	1849
3	8047	1065.084089697828	1850
3	8072	1066.084089697828	1851
3	8079	1068.084089697828	1852
3	8084	1069.584089697828	1853
3	8102	1070.084089697828	1854
3	8116	1072.084089697828	1855
3	8124	1074.084089697828	1856
3	8125	1074.084089697828	1857
3	8154	1076.084089697828	1858
3	8161	1078.084089697828	1859
3	8165	1078.584089697828	1860
3	8192	1080.084089697828	1861
3	8198	1082.084089697828	1862
3	8204	1083.084089697828	1863
3	8229	1084.084089697828	1864
3	8236	1086.084089697828	1865
3	8241	1087.584089697828	1866
3	8259	1088.084089697828	1867
3	8274	1090.084089697828	1868
3	8281	1092.084089697828	1869
3	8282	1092.084089697828	1870
3	8311	1094.084089697828	1871
3	8318	1096.084089697828	1872
3	8322	1096.584089697828	1873
3	8349	1098.084089697828	1874
3	8356	1100.084089697828	1875
3	8361	1101.084089697828	1876
3	8386	1102.084089697828	1877
3	8392	1104.084089697828	1878
3	8398	1105.584089697828	1879
3	8418	1106.084089697828	1880
3	8430	1108.084089697828	1881
3	8437	1110.084089697828	1882
3	8438	1110.084089697828	1883
3	8466	1112.084089697828	1884
3	8473	1114.084089697828	1885
3	8478	1114.584089697828	1886
3	8504	1116.084089697828	1887
3	8511	1118.084089697828	1888
3	8516	1119.084089697828	1889
3	8542	1120.084089697828	1890
3	8547	1122.084089697828	1891
3	8554	1123.584089697828	1892
3	8574	1124.084089697828	1893
3	8585	1126.084089697828	1894
3	8593	1128.084089697828	1895
3	8594	1128.084089697828	1896
3	8623	1130.084089697828	1897
3	8628	1132.084089697828	1898
3	8633	1132.584089697828	1899
3	8660	1134.084089697828	1900
3	8666	1136.084089697828	1901
3	8671	1137.084089697828	1902
3	8698	1138.084089697828	1903
3	8704	1140.084089697828	1904
3	8709	1141.584089697828	1905
3	8729	1142.084089697828	1906
3	8741	1144.084089697828	1907
3	8748	1146.084089697828	1908
3	8749	1146.084089697828	1909
3	8779	1148.084089697828	1910
3	8785	1150.084089697828	1911
3	8790	1150.584089697828	1912
3	8815	1152.084089697828	1913
3	8822	1154.084089697828	1914
3	8828	1155.084089697828	1915
3	8853	1156.084089697828	1916
3	8860	1158.084089697828	1917
3	8865	1159.584089697828	1918
3	8886	1160.084089697828	1919
3	8896	1162.084089697828	1920
3	8904	1164.084089697828	1921
3	8905	1164.084089697828	1922
3	8934	1166.084089697828	1923
3	8941	1168.084089697828	1924
3	8946	1168.584089697828	1925
3	8972	1170.084089697828	1926
3	8977	1172.084089697828	1927
3	8984	1173.084089697828	1928
3	9009	1174.084089697828	1929
3	9015	1176.084089697828	1930
3	9020	1177.584089697828	1931
3	9042	1178.084089697828	1932
3	9053	1180.084089697828	1933
3	9059	1182.084089697828	1934
3	9060	1182.084089697828	1935
3	9090	1184.084089697828	1936
3	9096	1186.084089697828	1937
3	9101	1186.584089697828	1938
3	9128	1188.084089697828	1939
3	9134	1190.084089697828	1940
3	9139	1191.084089697828	1941
3	9164	1192.084089697828	1942
3	9171	1194.084089697828	1943
3	9177	1195.584089697828	1944
3	9197	1196.084089697828	1945
3	9209	1198.084089697828	1946
3	9216	1200.084089697828	1947
3	9217	1200.084089697828	1948
3	9245	1202.084089697828	1949
3	9252	1204.084089697828	1950
3	9257	1204.584089697828	1951
3	9283	1206.084089697828	1952
3	9290	1208.084089697828	1953
3	9295	1209.084089697828	1954
3	9321	1210.084089697828	1955
3	9326	1212.084089697828	1956
3	9333	1213.584089697828	1957
3	9353	1214.084089697828	1958
3	9364	1216.084089697828	1959
3	9372	1218.084089697828	1960
3	9373	1218.084089697828	1961
3	9402	1220.084089697828	1962
3	9407	1222.084089697828	1963
3	9412	1222.584089697828	1964
3	9439	1224.084089697828	1965
3	9445	1226.084089697828	1966
3	9450	1227.084089697828	1967
3	9477	1228.084089697828	1968
3	9483	1230.084089697828	1969
3	9488	1231.584089697828	1970
3	9508	1232.084089697828	1971
3	9520	1234.084089697828	1972
3	9527	1236.084089697828	1973
3	9528	1236.084089697828	1974
3	9558	1238.084089697828	1975
3	9564	1240.084089697828	1976
3	9569	1240.584089697828	1977
3	9594	1242.084089697828	1978
3	9601	1244.084089697828	1979
3	9607	1245.084089697828	1980
3	9632	1246.084089697828	1981
3	9639	1248.084089697828	1982
3	9644	1249.584089697828	1983
3	9665	1250.084089697828	1984
3	9675	1252.084089697828	1985
3	9683	1254.084089697828	1986
3	9684	1254.084089697828	1987
3	9713	1256.084089697828	1988
3	9720	1258.084089697828	1989
3	9725	1258.584089697828	1990
3	9751	1260.084089697828	1991
3	9756	1262.084089697828	1992
3	9763	1263.084089697828	1993
3	9788	1264.084089697828	1994
3	9794	1266.084089697828	1995
3	9799	1267.584089697828	1996
3	9821	1268.084089697828	1997
3	9832	1270.084089697828	1998
3	9838	1272.084089697828	1999
3	9839	1272.084089697828	2000
3	9869	1274.084089697828	2001
3	9875	1276.084089697828	2002
3	9880	1276.584089697828	2003
3	9907	1278.084089697828	2004
3	9913	1280.084089697828	2005
3	9918	1281.084089697828	2006
3	9943	1282.084089697828	2007
3	9950	1284.084089697828	2008
3	9956	1285.584089697828	2009
3	9976	1286.084089697828	2010
3	9988	1288.084089697828	2011
3	9995	1290.084089697828	2012
3	9996	1290.084089697828	2013
3	10024	1292.084089697828	2014
3	10031	1294.084089697828	2015
3	10036	1294.584089697828	2016
3	10063	1296.084089697828	2017
3	10071	1298.084089697828	2018
3	10076	1299.084089697828	2019
3	10101	1300.084089697828	2020
3	10106	1302.084089697828	2021
3	10113	1303.584089697828	2022
3	10133	1304.084089697828	2023
3	10144	1306.084089697828	2024
3	10152	1308.084089697828	2025
3	10153	1308.084089697828	2026
3	10182	1310.084089697828	2027
3	10188	1312.084089697828	2028
3	10192	1312.584089697828	2029
3	10220	1314.084089697828	2030
3	10226	1316.084089697828	2031
3	10231	1317.084089697828	2032
3	10258	1318.084089697828	2033
3	10264	1320.084089697828	2034
3	10269	1321.584089697828	2035
3	10289	1322.084089697828	2036
3	10303	1324.084089697828	2037
3	10311	1326.084089697828	2038
3	10312	1326.084089697828	2039
3	10324	1328.084089697828	2040
3	10333	1329.34618522433	2041
3	10337	1330.084089697828	2042
3	10343	1330.584089697828	2043
3	10355	1332.084089697828	2044
3	10365	1334.084089697828	2045
3	10371	1334.767954273649	2046
3	10374	1335.084089697828	2047
3	10407	1336.084089697828	2048
3	10420	1338.084089697828	2049
3	10425	1339.584089697828	2050
3	10445	1340.084089697828	2051
3	10456	1342.084089697828	2052
3	10464	1344.084089697828	2053
3	10465	1344.084089697828	2054
3	10494	1346.084089697828	2055
3	10501	1348.084089697828	2056
3	10506	1348.584089697828	2057
3	10531	1350.084089697828	2058
3	10537	1352.084089697828	2059
3	10544	1353.084089697828	2060
3	10569	1354.084089697828	2061
3	10575	1356.084089697828	2062
3	10580	1357.584089697828	2063
3	10602	1358.084089697828	2064
3	10612	1360.084089697828	2065
3	10619	1362.084089697828	2066
3	10620	1362.084089697828	2067
3	10650	1364.084089697828	2068
3	10656	1366.084089697828	2069
3	10661	1366.584089697828	2070
3	10688	1368.084089697828	2071
3	10693	1370.084089697828	2072
3	10699	1371.084089697828	2073
3	10724	1372.084089697828	2074
3	10731	1374.084089697828	2075
3	10736	1375.584089697828	2076
3	10757	1376.084089697828	2077
3	10769	1378.084089697828	2078
3	10775	1380.084089697828	2079
3	10776	1380.084089697828	2080
3	10805	1382.084089697828	2081
3	10812	1384.084089697828	2082
3	10817	1384.584089697828	2083
3	10843	1386.084089697828	2084
3	10850	1388.084089697828	2085
3	10855	1389.084089697828	2086
3	10880	1390.084089697828	2087
3	10886	1392.084089697828	2088
3	10893	1393.584089697828	2089
3	10913	1394.084089697828	2090
3	10924	1396.084089697828	2091
3	10932	1398.084089697828	2092
3	10933	1398.084089697828	2093
3	10961	1400.084089697828	2094
3	10967	1402.084089697828	2095
3	10972	1402.584089697828	2096
3	10999	1404.084089697828	2097
3	11005	1406.084089697828	2098
3	11010	1407.084089697828	2099
3	11037	1408.084089697828	2100
3	11042	1410.084089697828	2101
3	11048	1411.584089697828	2102
3	11068	1412.084089697828	2103
3	11080	1414.084089697828	2104
3	11087	1416.084089697828	2105
3	11088	1416.084089697828	2106
3	11118	1418.084089697828	2107
3	11123	1420.084089697828	2108
3	11128	1420.584089697828	2109
3	11154	1422.084089697828	2110
3	11161	1424.084089697828	2111
3	11166	1425.084089697828	2112
3	11192	1426.084089697828	2113
3	11199	1428.084089697828	2114
3	11204	1429.584089697828	2115
3	11224	1430.084089697828	2116
3	11235	1432.084089697828	2117
3	11243	1434.084089697828	2118
3	11244	1434.084089697828	2119
3	11273	1436.084089697828	2120
3	11280	1438.084089697828	2121
3	11285	1438.584089697828	2122
3	11310	1440.084089697828	2123
3	11316	1442.084089697828	2124
3	11323	1443.084089697828	2125
3	11348	1444.084089697828	2126
3	11354	1446.084089697828	2127
3	11359	1447.584089697828	2128
3	11381	1448.084089697828	2129
3	11391	1450.084089697828	2130
3	11398	1452.084089697828	2131
3	11399	1452.084089697828	2132
3	11429	1454.084089697828	2133
3	11435	1456.084089697828	2134
3	11440	1456.584089697828	2135
3	11467	1458.084089697828	2136
3	11472	1460.084089697828	2137
3	11478	1461.084089697828	2138
3	11503	1462.084089697828	2139
3	11510	1464.084089697828	2140
3	11515	1465.584089697828	2141
3	11536	1466.084089697828	2142
3	11548	1468.084089697828	2143
3	11554	1470.084089697828	2144
3	11555	1470.084089697828	2145
3	11584	1472.084089697828	2146
3	11591	1474.084089697828	2147
3	11596	1474.584089697828	2148
3	11622	1476.084089697828	2149
3	11629	1478.084089697828	2150
3	11634	1479.084089697828	2151
3	11659	1480.084089697828	2152
3	11665	1482.084089697828	2153
3	11672	1483.584089697828	2154
3	11692	1484.084089697828	2155
3	11703	1486.084089697828	2156
3	11711	1488.084089697828	2157
3	11712	1488.084089697828	2158
3	11740	1490.084089697828	2159
3	11746	1492.084089697828	2160
3	11751	1492.584089697828	2161
3	11778	1494.084089697828	2162
3	11784	1496.084089697828	2163
3	11789	1497.084089697828	2164
3	11816	1498.084089697828	2165
[...]
25	9821	1268.084089697828	176
25	9832	1270.084089697828	177
25	9838	1272.084089697828	178
25	9839	1272.084089697828	179
25	9869	1274.084089697828	180
25	9875	1276.084089697828	181
25	9880	1276.584089697828	182
25	9907	1278.084089697828	183
25	9913	1280.084089697828	184
25	9918	1281.084089697828	185
25	9943	1282.084089697828	186
25	9950	1284.084089697828	187
25	9956	1285.584089697828	188
25	9976	1286.084089697828	189
25	9988	1288.084089697828	190
25	9995	1290.084089697828	191
25	9996	1290.084089697828	192
25	10024	1292.084089697828	193
25	10031	1294.084089697828	194
25	10036	1294.584089697828	195
25	10063	1296.084089697828	196
25	10071	1298.084089697828	197
25	10076	1299.084089697828	198
25	10101	1300.084089697828	199
25	10106	1302.084089697828	200
25	10113	1303.584089697828	201
25	10133	1304.084089697828	202
25	10144	1306.084089697828	203
25	10152	1308.084089697828	204
25	10153	1308.084089697828	205
25	10182	1310.084089697828	206
25	10188	1312.084089697828	207
25	10192	1312.584089697828	208
25	10220	1314.084089697828	209
25	10226	1316.084089697828	210
25	10231	1317.084089697828	211
25	10258	1318.084089697828	212
25	10264	1320.084089697828	213
25	10269	1321.584089697828	214
25	10289	1322.084089697828	215
25	10365	1334.084089697828	216
25	10374	1335.084089697828	217
25	10407	1336.084089697828	218
25	10420	1338.084089697828	219
25	10425	1339.584089697828	220
25	10445	1340.084089697828	221
25	10456	1342.084089697828	222
25	10464	1344.084089697828	223
25	10465	1344.084089697828	224
25	10494	1346.084089697828	225
25	10501	1348.084089697828	226
25	10506	1348.584089697828	227
25	10531	1350.084089697828	228
25	10537	1352.084089697828	229
25	10544	1353.084089697828	230
25	10569	1354.084089697828	231
25	10575	1356.084089697828	232
25	10580	1357.584089697828	233
25	10602	1358.084089697828	234
25	10612	1360.084089697828	235
25	10619	1362.084089697828	236
25	10620	1362.084089697828	237
25	10650	1364.084089697828	238
25	10656	1366.084089697828	239
25	10661	1366.584089697828	240
25	10688	1368.084089697828	241
25	10693	1370.084089697828	242
25	10699	1371.084089697828	243
25	10724	1372.084089697828	244
25	10731	1374.084089697828	245
25	10736	1375.584089697828	246
25	10757	1376.084089697828	247
25	10769	1378.084089697828	248
25	10775	1380.084089697828	249
25	10776	1380.084089697828	250
25	10805	1382.084089697828	251
25	10812	1384.084089697828	252
25	10817	1384.584089697828	253
25	10843	1386.084089697828	254
25	10850	1388.084089697828	255
25	10855	1389.084089697828	256
25	10880	1390.084089697828	257
25	10886	1392.084089697828	258
25	10893	1393.584089697828	259
25	10913	1394.084089697828	260
25	10924	1396.084089697828	261
25	10932	1398.084089697828	262
25	10933	1398.084089697828	263
25	10961	1400.084089697828	264
25	10967	1402.084089697828	265
25	10972	1402.584089697828	266
25	10999	1404.084089697828	267
25	11005	1406.084089697828	268
25	11010	1407.084089697828	269
25	11037	1408.084089697828	270
25	11042	1410.084089697828	271
25	11048	1411.584089697828	272
25	11068	1412.084089697828	273
25	11080	1414.084089697828	274
25	11087	1416.084089697828	275
25	11088	1416.084089697828	276
25	11118	1418.084089697828	277
25	11123	1420.084089697828	278
25	11128	1420.584089697828	279
25	11154	1422.084089697828	280
25	11161	1424.084089697828	281
25	11166	1425.084089697828	282
25	11192	1426.084089697828	283
25	11199	1428.084089697828	284
25	11204	1429.584089697828	285
25	11224	1430.084089697828	286
25	11235	1432.084089697828	287
25	11243	1434.084089697828	288
25	11244	1434.084089697828	289
25	11273	1436.084089697828	290
25	11280	1438.084089697828	291
25	11285	1438.584089697828	292
25	11310	1440.084089697828	293
25	11316	1442.084089697828	294
25	11323	1443.084089697828	295
25	11348	1444.084089697828	296
25	11354	1446.084089697828	297
25	11359	1447.584089697828	298
25	11381	1448.084089697828	299
25	11391	1450.084089697828	300
25	11398	1452.084089697828	301
25	11399	1452.084089697828	302
25	11429	1454.084089697828	303
25	11435	1456.084089697828	304
25	11440	1456.584089697828	305
25	11467	1458.084089697828	306
25	11472	1460.084089697828	307
25	11478	1461.084089697828	308
25	11503	1462.084089697828	309
25	11510	1464.084089697828	310
25	11515	1465.584089697828	311
25	11536	1466.084089697828	312
25	11548	1468.084089697828	313
25	11554	1470.084089697828	314
25	11555	1470.084089697828	315
25	11584	1472.084089697828	316
25	11591	1474.084089697828	317
25	11596	1474.584089697828	318
25	11622	1476.084089697828	319
25	11629	1478.084089697828	320
25	11634	1479.084089697828	321
25	11659	1480.084089697828	322
25	11665	1482.084089697828	323
25	11672	1483.584089697828	324
25	11692	1484.084089697828	325
25	11703	1486.084089697828	326
25	11711	1488.084089697828	327
25	11712	1488.084089697828	328
25	11740	1490.084089697828	329
25	11746	1492.084089697828	330
25	11751	1492.584089697828	331
25	11778	1494.084089697828	332
25	11784	1496.084089697828	333
25	11789	1497.084089697828	334
25	11816	1498.084089697828	335
25	11821	1500.084089697828	336
25	11827	1501.584089697828	337
25	11847	1502.084089697828	338
25	11859	1504.084089697828	339
25	11866	1506.084089697828	340
25	11867	1506.084089697828	341
25	11897	1508.084089697828	342
25	11902	1510.084089697828	343
25	11907	1510.584089697828	344
25	11933	1512.084089697828	345
25	11940	1514.084089697828	346
25	11945	1515.084089697828	347
25	11971	1516.084089697828	348
25	11978	1518.084089697828	349
25	11983	1519.584089697828	350
25	12003	1520.084089697828	351
25	12014	1522.084089697828	352
25	12022	1524.084089697828	353
25	12023	1524.084089697828	354
25	12052	1526.084089697828	355
25	12059	1528.084089697828	356
25	12064	1528.584089697828	357
25	12089	1530.084089697828	358
25	12095	1532.084089697828	359
25	12102	1533.084089697828	360
25	12127	1534.084089697828	361
25	12133	1536.084089697828	362
25	12138	1537.584089697828	363
25	12160	1538.084089697828	364
25	12170	1540.084089697828	365
25	12177	1542.084089697828	366
25	12178	1542.084089697828	367
25	12208	1544.084089697828	368
25	12214	1546.084089697828	369
25	12219	1546.584089697828	370
25	12246	1548.084089697828	371
25	12251	1550.084089697828	372
25	12257	1551.084089697828	373
25	12282	1552.084089697828	374
25	12290	1554.084089697828	375
25	12295	1555.584089697828	376
25	12315	1556.084089697828	377
25	12328	1558.084089697828	378
25	12335	1560.084089697828	379
25	12336	1560.084089697828	380
25	12364	1562.084089697828	381
25	12372	1564.084089697828	382
25	12376	1564.584089697828	383
25	12402	1566.084089697828	384
25	12410	1568.084089697828	385
25	12415	1569.084089697828	386
25	12440	1570.084089697828	387
25	12446	1572.084089697828	388
25	12453	1573.584089697828	389
25	12473	1574.084089697828	390
25	12484	1576.084089697828	391
25	12493	1578.084089697828	392
25	12494	1578.084089697828	393
25	12521	1580.084089697828	394
25	12526	1582.084089697828	395
25	12531	1582.584089697828	396
25	12559	1584.084089697828	397
25	12564	1586.084089697828	398
25	12569	1587.084089697828	399
25	12596	1588.084089697828	400
25	12602	1590.084089697828	401
25	12607	1591.584089697828	402
25	12627	1592.084089697828	403
25	12640	1594.084089697828	404
25	12646	1596.084089697828	405
25	12647	1596.084089697828	406
25	12677	1598.084089697828	407
25	12683	1600.084089697828	408
25	12688	1600.584089697828	409
25	12713	1602.084089697828	410
25	12721	1604.084089697828	411
25	12726	1605.084089697828	412
25	12751	1606.084089697828	413
25	12758	1608.084089697828	414
25	12764	1609.584089697828	415
25	12784	1610.084089697828	416
25	12794	1612.084089697828	417
25	12803	1614.084089697828	418
25	12804	1614.084089697828	419
25	12832	1616.084089697828	420
25	12839	1618.084089697828	421
25	12844	1618.584089697828	422
25	12870	1620.084089697828	423
25	12875	1622.084089697828	424
25	12882	1623.084089697828	425
25	12908	1624.084089697828	426
25	12913	1626.084089697828	427
25	12918	1627.584089697828	428
25	12940	1628.084089697828	429
25	12951	1630.084089697828	430
25	12957	1632.084089697828	431
25	12958	1632.084089697828	432
25	12989	1634.084089697828	433
25	12994	1636.084089697828	434
25	12999	1636.584089697828	435
25	13026	1638.084089697828	436
25	13032	1640.084089697828	437
25	13037	1641.084089697828	438
25	13062	1642.084089697828	439
25	13070	1644.084089697828	440
25	13075	1645.584089697828	441
25	13095	1646.084089697828	442
25	13107	1648.084089697828	443
25	13114	1650.084089697828	444
25	13115	1650.084089697828	445
25	13143	1652.084089697828	446
25	13151	1654.084089697828	447
25	13156	1654.584089697828	448
25	13181	1656.084089697828	449
25	13188	1658.084089697828	450
25	13194	1659.084089697828	451
25	13219	1660.084089697828	452
25	13224	1662.084089697828	453
25	13231	1663.584089697828	454
25	13252	1664.084089697828	455
25	13262	1666.084089697828	456
25	13270	1668.084089697828	457
25	13271	1668.084089697828	458
25	13300	1670.084089697828	459
25	13305	1672.084089697828	460
25	13310	1672.584089697828	461
25	13338	1674.084089697828	462
25	13343	1676.084089697828	463
25	13348	1677.084089697828	464
25	13375	1678.084089697828	465
25	13381	1680.084089697828	466
25	13386	1681.584089697828	467
25	13406	1682.084089697828	468
25	13419	1684.084089697828	469
25	13425	1686.084089697828	470
25	13426	1686.084089697828	471
25	13456	1688.084089697828	472
25	13462	1690.084089697828	473
25	13467	1690.584089697828	474
25	13492	1692.084089697828	475
25	13500	1694.084089697828	476
25	13505	1695.084089697828	477
25	13530	1696.084089697828	478
25	13537	1698.084089697828	479
25	13543	1699.584089697828	480
25	13563	1700.084089697828	481
25	13573	1702.084089697828	482
25	13582	1704.084089697828	483
25	13583	1704.084089697828	484
25	13611	1706.084089697828	485
25	13618	1708.084089697828	486
25	13623	1708.584089697828	487
25	13649	1710.084089697828	488
25	13654	1712.084089697828	489
25	13661	1713.084089697828	490
25	13687	1714.084089697828	491
25	13692	1716.084089697828	492
25	13697	1717.584089697828	493
25	13719	1718.084089697828	494
25	13730	1720.084089697828	495
25	13736	1722.084089697828	496
25	13737	1722.084089697828	497
25	13768	1724.084089697828	498
25	13773	1726.084089697828	499
25	13778	1726.584089697828	500
25	13805	1728.084089697828	501
25	13811	1730.084089697828	502
25	13816	1731.084089697828	503
25	13841	1732.084089697828	504
25	14000	1750.084089697828	505
25	14005	1752.084089697828	506
25	14011	1753.584089697828	507
25	14032	1754.084089697828	508
25	14043	1756.084089697828	509
25	14050	1758.084089697828	510
25	14051	1758.084089697828	511
25	14081	1760.084089697828	512
25	14086	1762.084089697828	513
25	14091	1762.584089697828	514
25	14118	1764.084089697828	515
25	14124	1766.084089697828	516
25	14129	1767.084089697828	517
25	14155	1768.084089697828	518
25	14162	1770.084089697828	519
25	14167	1771.584089697828	520
25	14187	1772.084089697828	521
25	14199	1774.084089697828	522
25	14206	1776.084089697828	523
25	14207	1776.084089697828	524
25	14236	1778.084089697828	525
25	14243	1780.084089697828	526
25	14248	1780.584089697828	527
25	14273	1782.084089697828	528
25	14280	1784.084089697828	529
25	14286	1785.084089697828	530
25	14311	1786.084089697828	531
25	14317	1788.084089697828	532
25	14323	1789.584089697828	533
25	14344	1790.084089697828	534
25	14354	1792.084089697828	535
25	14361	1794.084089697828	536
25	14362	1794.084089697828	537
25	14392	1796.084089697828	538
25	14398	1798.084089697828	539
25	14403	1798.584089697828	540
25	14429	1800.084089697828	541
25	14435	1802.084089697828	542
25	14441	1803.084089697828	543
25	14466	1804.084089697828	544
25	14473	1806.084089697828	545
25	14478	1807.584089697828	546
25	14499	1808.084089697828	547
25	14510	1810.084089697828	548
25	14517	1812.084089697828	549
25	14518	1812.084089697828	550
25	14547	1814.084089697828	551
25	14554	1816.084089697828	552
25	14559	1816.584089697828	553
25	14585	1818.084089697828	554
25	14591	1820.084089697828	555
25	14597	1821.084089697828	556
25	14622	1822.084089697828	557
25	14628	1824.084089697828	558
25	14634	1825.584089697828	559
25	14655	1826.084089697828	560
25	14666	1828.084089697828	561
25	14673	1830.084089697828	562
25	14674	1830.084089697828	563
25	14703	1832.084089697828	564
25	14709	1834.084089697828	565
25	14714	1834.584089697828	566
25	14741	1836.084089697828	567
25	14747	1838.084089697828	568
25	14752	1839.084089697828	569
25	14778	1840.084089697828	570
25	14784	1842.084089697828	571
25	14790	1843.584089697828	572
25	14810	1844.084089697828	573
25	14822	1846.084089697828	574
25	14829	1848.084089697828	575
25	14830	1848.084089697828	576
25	14859	1850.084089697828	577
25	14865	1852.084089697828	578
25	14870	1852.584089697828	579
25	14896	1854.084089697828	580
25	14903	1856.084089697828	581
25	14908	1857.084089697828	582
25	14934	1858.084089697828	583
25	14940	1860.084089697828	584
25	14946	1861.584089697828	585
25	14966	1862.084089697828	586
25	14977	1864.084089697828	587
25	14985	1866.084089697828	588
25	14986	1866.084089697828	589
25	15015	1868.084089697828	590
25	15021	1870.084089697828	591
25	15026	1870.584089697828	592
25	15052	1872.084089697828	593
25	15058	1874.084089697828	594
25	15064	1875.084089697828	595
25	15090	1876.084089697828	596
25	15096	1878.084089697828	597
25	15101	1879.584089697828	598
25	15122	1880.084089697828	599
25	15133	1882.084089697828	600
25	15140	1884.084089697828	601
25	15141	1884.084089697828	602
25	15171	1886.084089697828	603
25	15177	1888.084089697828	604
25	15182	1888.584089697828	605
25	15208	1890.084089697828	606
25	15214	1892.084089697828	607
25	15220	1893.084089697828	608
25	15245	1894.084089697828	609
25	15252	1896.084089697828	610
25	15257	1897.584089697828	611
25	15278	1898.084089697828	612
25	15289	1900.084089697828	613
25	15296	1902.084089697828	614
25	15297	1902.084089697828	615
25	15326	1904.084089697828	616
25	15333	1906.084089697828	617
25	15338	1906.584089697828	618
25	15364	1908.084089697828	619
25	15370	1910.084089697828	620
25	15376	1911.084089697828	621
25	15401	1912.084089697828	622
25	15407	1914.084089697828	623
25	15413	1915.584089697828	624
25	15434	1916.084089697828	625
25	15445	1918.084089697828	626
25	15452	1920.084089697828	627
25	15453	1920.084089697828	628
25	15482	1922.084089697828	629
25	15488	1924.084089697828	630
25	15493	1924.584089697828	631
25	15520	1926.084089697828	632
25	15526	1928.084089697828	633
25	15531	1929.084089697828	634
25	15557	1930.084089697828	635
25	15563	1932.084089697828	636
25	15569	1933.584089697828	637
25	15589	1934.084089697828	638
25	15601	1936.084089697828	639
25	15608	1938.084089697828	640
25	15609	1938.084089697828	641
25	15638	1940.084089697828	642
25	15644	1942.084089697828	643
25	15649	1942.584089697828	644
25	15675	1944.084089697828	645
25	15682	1946.084089697828	646
25	15687	1947.084089697828	647
25	15713	1948.084089697828	648
25	15719	1950.084089697828	649
25	15725	1951.584089697828	650
25	15745	1952.084089697828	651
25	15756	1954.084089697828	652
25	15764	1956.084089697828	653
25	15765	1956.084089697828	654
25	15794	1958.084089697828	655
25	15800	1960.084089697828	656
25	15805	1960.584089697828	657
25	15831	1962.084089697828	658
25	15837	1964.084089697828	659
25	15843	1965.084089697828	660
25	15869	1966.084089697828	661
25	15875	1968.084089697828	662
25	15880	1969.584089697828	663
25	15901	1970.084089697828	664
25	15912	1972.084089697828	665
25	15919	1974.084089697828	666
25	15920	1974.084089697828	667
25	15950	1976.084089697828	668
25	15956	1978.084089697828	669
25	15961	1978.584089697828	670
25	15987	1980.084089697828	671
25	15993	1982.084089697828	672
25	15999	1983.084089697828	673
25	16024	1984.084089697828	674
25	16031	1986.084089697828	675
25	16036	1987.584089697828	676
25	16057	1988.084089697828	677
25	16068	1990.084089697828	678
25	16075	1992.084089697828	679
25	16076	1992.084089697828	680
25	16105	1994.084089697828	681
25	16112	1996.084089697828	682
25	16117	1996.584089697828	683
25	16143	1998.084089697828	684
25	16149	2000.084089697828	685
25	16155	2001.084089697828	686
25	16180	2002.084089697828	687
25	16186	2004.084089697828	688
25	16192	2005.584089697828	689
25	16213	2006.084089697828	690
25	16224	2008.084089697828	691
25	16231	2010.084089697828	692
25	16232	2010.084089697828	693
25	16261	2012.084089697828	694
25	16267	2014.084089697828	695
25	16272	2014.584089697828	696
25	16299	2016.084089697828	697
25	16305	2018.084089697828	698
25	16310	2019.084089697828	699
25	16336	2020.084089697828	700
25	16342	2022.084089697828	701
25	16348	2023.584089697828	702
25	16368	2024.084089697828	703
25	16380	2026.084089697828	704
25	16387	2028.084089697828	705
25	16388	2028.084089697828	706
25	16417	2030.084089697828	707
25	16423	2032.084089697828	708
25	16428	2032.584089697828	709
25	16454	2034.084089697828	710
25	16461	2036.084089697828	711
25	16466	2037.084089697828	712
25	16492	2038.084089697828	713
25	16498	2040.084089697828	714
25	16504	2041.584089697828	715
25	16524	2042.084089697828	716
25	16535	2044.084089697828	717
25	16543	2046.084089697828	718
25	16544	2046.084089697828	719
25	16573	2048.084089697828	720
25	16579	2050.084089697828	721
25	16584	2050.584089697828	722
25	16610	2052.084089697828	723
25	16616	2054.084089697828	724
25	16622	2055.084089697828	725
25	16648	2056.084089697828	726
25	16654	2058.084089697828	727
25	16659	2059.584089697828	728
25	16680	2060.084089697828	729
25	16691	2062.084089697828	730
25	16698	2064.084089697828	731
25	16699	2064.084089697828	732
25	16729	2066.084089697828	733
25	16735	2068.084089697828	734
25	16740	2068.584089697828	735
25	16766	2070.084089697828	736
25	16772	2072.084089697828	737
25	16778	2073.084089697828	738
25	16803	2074.084089697828	739
25	16810	2076.084089697828	740
25	16815	2077.584089697828	741
25	16836	2078.084089697828	742
25	16847	2080.084089697828	743
25	16854	2082.084089697828	744
25	16855	2082.084089697828	745
25	16884	2084.084089697828	746
25	16891	2086.084089697828	747
25	16896	2086.584089697828	748
25	16922	2088.084089697828	749
25	16928	2090.084089697828	750
25	16934	2091.084089697828	751
25	16959	2092.084089697828	752
25	16965	2094.084089697828	753
25	16971	2095.584089697828	754
25	16992	2096.084089697828	755
25	17003	2098.084089697828	756
25	17010	2100.084089697828	757
25	17011	2100.084089697828	758
25	17040	2102.084089697828	759
25	17046	2104.084089697828	760
25	17051	2104.584089697828	761
25	17078	2106.084089697828	762
25	17084	2108.084089697828	763
25	17089	2109.084089697828	764
25	17115	2110.084089697828	765
25	17121	2112.084089697828	766
25	17127	2113.584089697828	767
25	17147	2114.084089697828	768
25	17159	2116.084089697828	769
25	17166	2118.084089697828	770
25	17167	2118.084089697828	771
25	17196	2120.084089697828	772
25	17202	2122.084089697828	773
25	17207	2122.584089697828	774
25	17233	2124.084089697828	775
25	17240	2126.084089697828	776
25	17245	2127.084089697828	777
25	17271	2128.084089697828	778
25	17277	2130.084089697828	779
25	17283	2131.584089697828	780
25	17303	2132.084089697828	781
25	17314	2134.084089697828	782
25	17322	2136.084089697828	783
25	17323	2136.084089697828	784
25	17352	2138.084089697828	785
25	17358	2140.084089697828	786
25	17363	2140.584089697828	787
25	17389	2142.084089697828	788
25	17395	2144.084089697828	789
25	17401	2145.084089697828	790
25	17427	2146.084089697828	791
25	17433	2148.084089697828	792
25	17438	2149.584089697828	793
25	17459	2150.084089697828	794
25	17470	2152.084089697828	795
25	17477	2154.084089697828	796
25	17478	2154.084089697828	797
25	17508	2156.084089697828	798
25	17514	2158.084089697828	799
25	17519	2158.584089697828	800
25	17545	2160.084089697828	801
25	17551	2162.084089697828	802
25	17557	2163.084089697828	803
25	17582	2164.084089697828	804
25	17589	2166.084089697828	805
25	17594	2167.584089697828	806
25	17615	2168.084089697828	807
25	17626	2170.084089697828	808
25	17633	2172.084089697828	809
25	17634	2172.084089697828	810
25	17663	2174.084089697828	811
25	17670	2176.084089697828	812
25	17675	2176.584089697828	813
25	17701	2178.084089697828	814
25	17707	2180.084089697828	815
25	17713	2181.084089697828	816
25	17738	2182.084089697828	817
25	17744	2184.084089697828	818
25	17750	2185.584089697828	819
25	17771	2186.084089697828	820

