version 2
run StaticNetwork-9-20220401-20:59:52-18812
attr configname StaticNetwork
attr datetime 20220401-20:59:52
attr experiment StaticNetwork
attr inifile omnetpp.ini
attr iterationvars "$0=5, $1=5, $2=normal(7.0s, 1.5s), $3=uniform(0.1s, 0.3s), $4=normal(5.0s, 1s), $5=2s, $6=4.5s, $7=5s, $8=1s, $9=1, $10=7, $11=0"
attr iterationvarsf 5,5,normal(7.0s,_1.5s),uniform(0.1s,_0.3s),normal(5.0s,_1s),2s,4.5s,5s,1s,1,7,0-
attr measurement "$0=5, $1=5, $2=normal(7.0s, 1.5s), $3=uniform(0.1s, 0.3s), $4=normal(5.0s, 1s), $5=2s, $6=4.5s, $7=5s, $8=1s, $9=1, $10=7, $11=0"
attr network RAFT_Network
attr processid 18812
attr repetition 1
attr replication #1
attr resultdir results
attr runnumber 9
attr seedset 9
param **.servers_number 5
param **.clients_number 5
param **.client[*].requestMsgTimeout "normal(7.0s, 1.5s)"
param **.cloud.propDelay "uniform(0.1s, 0.3s)"
param **.server[*].electionTimeout "normal(5.0s, 1s)"
param **.server[*].heartbeatTimeout 2s
param **.server[*].appendEntriesTimeout 4.5s
param **.server[*].checkFailureTimeout 5s
param **.server[*].checkRecoveryTimeout 1s
param **.failureProbability 1
param **.recoveryProbability 7
param **.messageLossProbability 0

vector 0 RAFT_Network.server[0] serverState ETV
vector 1 RAFT_Network.server[1] serverState ETV
vector 2 RAFT_Network.server[2] serverState ETV
vector 3 RAFT_Network.server[3] serverState ETV
vector 4 RAFT_Network.server[4] serverState ETV
vector 5 RAFT_Network.server[1] totMsgSent ETV
vector 6 RAFT_Network.server[1] totRequestVoteMsgSent ETV
vector 7 RAFT_Network.server[3] totMsgReceived ETV
vector 8 RAFT_Network.server[3] totMsgSent ETV
vector 9 RAFT_Network.server[3] totReplyToClientRequestMsgSent ETV
vector 10 RAFT_Network.server[4] totMsgReceived ETV
vector 11 RAFT_Network.server[4] totMsgSent ETV
vector 12 RAFT_Network.server[4] totReplyToClientRequestMsgSent ETV
vector 13 RAFT_Network.server[2] totMsgReceived ETV
vector 14 RAFT_Network.server[2] totMsgSent ETV
vector 15 RAFT_Network.server[2] totReplyToClientRequestMsgSent ETV
vector 16 RAFT_Network.server[1] totMsgReceived ETV
vector 17 RAFT_Network.server[0] electionsMeanTime ETV
vector 18 RAFT_Network.server[1] totAppendEntriesMsgSent ETV
vector 19 RAFT_Network.server[0] totMsgReceived ETV
vector 20 RAFT_Network.server[0] totMsgSent ETV
vector 21 RAFT_Network.server[0] totReplyToClientRequestMsgSent ETV
vector 22 RAFT_Network.server[3] totReplyToAppendEntriesMsgSent ETV
vector 23 RAFT_Network.server[4] totReplyToAppendEntriesMsgSent ETV
vector 24 RAFT_Network.server[2] totReplyToAppendEntriesMsgSent ETV
vector 25 RAFT_Network.server[0] totReplyToAppendEntriesMsgSent ETV
vector 26 RAFT_Network.server[1] totReplyToClientRequestMsgSent ETV
vector 27 RAFT_Network.client[2] responseTime ETV
vector 28 RAFT_Network.client[4] responseTime ETV
vector 29 RAFT_Network.client[3] responseTime ETV
vector 30 RAFT_Network.client[1] responseTime ETV
vector 31 RAFT_Network.client[0] responseTime ETV
vector 32 RAFT_Network.server[3] totRequestVoteMsgSent ETV
vector 33 RAFT_Network.server[3] totAppendEntriesMsgSent ETV
vector 34 RAFT_Network.server[1] totReplyToAppendEntriesMsgSent ETV
0	0	0	0
0	7	3.924838028771	0
0	7	3.924838028771	0
0	2665	225	0
0	2665	225	-1
0	2683	227	-1
0	2683	227	0
0	5372	454.714983008709	0
0	5372	454.714983008709	0
0	6077	512	0
0	6077	512	-1
0	6217	523	-1
0	6217	523	0
0	9250	778	0
0	9250	778	-1
0	9302	782	-1
0	9302	782	0
0	9528	802.919919733216	0
0	9528	802.919919733216	0
0	10354	873.710064713154	0
0	10354	873.710064713154	0
0	19302	1621.937355476018	0
0	19302	1621.937355476018	0
0	24303	2037	0
0	24303	2037	-1
0	24741	2074	-1
0	24741	2074	0
0	29374	2464.748907586902	0
0	29374	2464.748907586902	0
0	30106	2524	0
0	30106	2524	-1
0	30118	2525	-1
0	30118	2525	0
0	30204	2534.953844311409	0
0	30204	2534.953844311409	0
0	30455	2555	0
0	30455	2555	-1
0	30945	2596	-1
0	30945	2596	0
0	35781	3000	0
1	0	0	0
1	1	3.81942165816	0
1	1	3.81942165816	1
1	6	3.922399488789	1
1	6	3.922399488789	2
1	5354	450	2
1	5354	450	-1
1	5370	454	-1
1	5370	454	0
1	5375	454.827149670799	0
1	5375	454.827149670799	0
1	9522	802.814503362605	0
1	9522	802.814503362605	1
1	9527	802.917481193234	1
1	9527	802.917481193234	2
1	10329	869	2
1	10329	869	-1
1	10336	870	-1
1	10336	870	0
1	10357	873.81942165816	0
1	10357	873.81942165816	1
1	10377	874.012517447247	1
1	10377	874.012517447247	0
1	13264	1115	0
1	13264	1115	-1
1	13271	1116	-1
1	13271	1116	0
1	19297	1621.831939105407	0
1	19297	1621.831939105407	1
1	19303	1621.956324066982	1
1	19303	1621.956324066982	2
1	29367	2461	2
1	29367	2461	-1
1	29370	2462	-1
1	29370	2462	0
1	29377	2464.861074248992	0
1	29377	2464.861074248992	0
1	30198	2534.848427940798	0
1	30198	2534.848427940798	1
1	30203	2534.951405771427	1
1	30203	2534.951405771427	2
1	35781	3000	2
2	0	0	0
2	4	3.879879041536	0
2	4	3.879879041536	0
2	1821	155	0
2	1821	155	-1
2	1885	161	-1
2	1885	161	0
2	5373	454.752692769301	0
2	5373	454.752692769301	0
2	9525	802.874960745981	0
2	9525	802.874960745981	0
2	10355	873.747774473746	0
2	10355	873.747774473746	0
2	15736	1321	0
2	15736	1321	-1
2	15748	1323	-1
2	15748	1323	0
2	18015	1513	0
2	18015	1513	-1
2	18052	1515	-1
2	18052	1515	0
2	19300	1621.892396488783	0
2	19300	1621.892396488783	0
2	22584	1895	0
2	22584	1895	-1
2	22620	1897	-1
2	22620	1897	0
2	22739	1907	0
2	22739	1907	-1
2	23626	1982	-1
2	23626	1982	0
2	29375	2464.786617347494	0
2	29375	2464.786617347494	0
2	30201	2534.908885324174	0
2	30201	2534.908885324174	0
2	35194	2952	0
2	35194	2952	-1
2	35730	2996	-1
2	35730	2996	0
2	35781	3000	0
3	0	0	0
3	2	3.826697527675	0
3	2	3.826697527675	0
3	5371	454.713007055367	0
3	5371	454.713007055367	1
3	5378	454.880939089013	1
3	5378	454.880939089013	2
3	9516	800	2
3	9516	800	-1
3	9737	819	-1
3	9737	819	0
3	9744	820.924757062749	0
3	9744	820.924757062749	0
3	10353	873.708088759812	0
3	10353	873.708088759812	1
3	10366	873.898374831815	1
3	10366	873.898374831815	2
3	19290	1619	2
3	19290	1619	-1
3	19308	1622	-1
3	19308	1622	0
3	19322	1623.963599936497	0
3	19322	1623.963599936497	0
3	23506	1972	0
3	23506	1972	-1
3	23889	2004	-1
3	23889	2004	0
3	27429	2299	0
3	27429	2299	-1
3	27647	2317	-1
3	27647	2317	0
3	29373	2464.74693163356	0
3	29373	2464.74693163356	1
3	29380	2464.914863667206	1
3	29380	2464.914863667206	2
3	30186	2532	2
3	30186	2532	-1
3	30237	2537	-1
3	30237	2537	0
3	30244	2538.958681640942	0
3	30244	2538.958681640942	0
3	35781	3000	0
4	0	0	0
4	3	3.826731187564	0
4	3	3.826731187564	0
4	5377	454.856512199229	0
4	5377	454.856512199229	0
4	9524	802.821812892009	0
4	9524	802.821812892009	0
4	10360	873.826731187564	0
4	10360	873.826731187564	0
4	11283	950	0
4	11283	950	-1
4	11375	956	-1
4	11375	956	0
4	11714	986	0
4	11714	986	-1
4	11765	990	-1
4	11765	990	0
4	14453	1215	0
4	14453	1215	-1
4	15051	1265	-1
4	15051	1265	0
4	19291	1620	0
4	19291	1620	-1
4	19626	1647	-1
4	19626	1647	0
4	19629	1647.963633596386	0
4	19629	1647.963633596386	0
4	19855	1667	0
4	19855	1667	-1
4	19891	1669	-1
4	19891	1669	0
4	20598	1729	0
4	20598	1729	-1
4	20745	1740	-1
4	20745	1740	0
4	21221	1780	0
4	21221	1780	-1
4	21284	1785	-1
4	21284	1785	0
4	28284	2370	0
4	28284	2370	-1
4	28331	2374	-1
4	28331	2374	0
4	28394	2379	0
4	28394	2379	-1
4	28508	2389	-1
4	28508	2389	0
4	29379	2464.890436777422	0
4	29379	2464.890436777422	0
4	30200	2534.855737470202	0
4	30200	2534.855737470202	0
4	35781	3000	0
5	1	3.81942165816	1
5	1	3.81942165816	2
5	1	3.81942165816	3
5	1	3.81942165816	4
5	6	3.922399488789	5
5	6	3.922399488789	6
5	6	3.922399488789	7
5	6	3.922399488789	8
5	26	5.922399488789	9
5	26	5.922399488789	10
5	26	5.922399488789	11
5	26	5.922399488789	12
5	47	7.922399488789	13
5	47	7.922399488789	14
5	47	7.922399488789	15
5	47	7.922399488789	16
5	65	8.422399488789	17
5	65	8.422399488789	18
5	65	8.422399488789	19
5	65	8.422399488789	20
5	71	8.525377319418	21
5	71	8.525377319418	22
5	71	8.525377319418	23
5	89	9.922399488789	24
5	89	9.922399488789	25
5	89	9.922399488789	26
5	89	9.922399488789	27
5	103	11.922399488789	28
5	103	11.922399488789	29
5	103	11.922399488789	30
5	103	11.922399488789	31
5	112	12.922399488789	32
5	112	12.922399488789	33
5	112	12.922399488789	34
5	112	12.922399488789	35
5	117	13.025377319418	36
5	117	13.025377319418	37
5	117	13.025377319418	38
5	117	13.025377319418	39
5	117	13.025377319418	40
5	141	13.922399488789	41
5	141	13.922399488789	42
5	141	13.922399488789	43
5	141	13.922399488789	44
5	155	15.922399488789	45
5	155	15.922399488789	46
5	155	15.922399488789	47
5	155	15.922399488789	48
5	164	17.422399488789	49
5	164	17.422399488789	50
5	164	17.422399488789	51
5	164	17.422399488789	52
5	169	17.525377319418	53
5	169	17.525377319418	54
5	169	17.525377319418	55
5	169	17.525377319418	56
5	169	17.525377319418	57
5	186	17.922399488789	58
5	186	17.922399488789	59
5	186	17.922399488789	60
5	186	17.922399488789	61
5	202	19.922399488789	62
5	202	19.922399488789	63
5	202	19.922399488789	64
5	202	19.922399488789	65
5	216	21.922399488789	66
5	216	21.922399488789	67
5	216	21.922399488789	68
5	216	21.922399488789	69
5	217	21.922399488789	70
5	217	21.922399488789	71
5	217	21.922399488789	72
5	217	21.922399488789	73
5	226	22.025377319418	74
5	226	22.025377319418	75
5	226	22.025377319418	76
5	226	22.025377319418	77
5	226	22.025377319418	78
5	254	23.922399488789	79
5	254	23.922399488789	80
5	254	23.922399488789	81
5	254	23.922399488789	82
5	268	25.922399488789	83
5	268	25.922399488789	84
5	268	25.922399488789	85
5	268	25.922399488789	86
5	277	26.422399488789	87
5	277	26.422399488789	88
5	277	26.422399488789	89
5	277	26.422399488789	90
5	282	26.525377319418	91
5	282	26.525377319418	92
5	282	26.525377319418	93
5	282	26.525377319418	94
5	282	26.525377319418	95
5	306	27.922399488789	96
5	306	27.922399488789	97
5	306	27.922399488789	98
5	306	27.922399488789	99
5	315	29.922399488789	100
5	315	29.922399488789	101
5	315	29.922399488789	102
5	315	29.922399488789	103
5	329	30.922399488789	104
5	329	30.922399488789	105
5	329	30.922399488789	106
5	329	30.922399488789	107
5	334	31.025377319418	108
5	334	31.025377319418	109
5	334	31.025377319418	110
5	334	31.025377319418	111
5	334	31.025377319418	112
5	358	31.922399488789	113
5	358	31.922399488789	114
5	358	31.922399488789	115
5	358	31.922399488789	116
5	367	33.922399488789	117
5	367	33.922399488789	118
5	367	33.922399488789	119
5	367	33.922399488789	120
5	381	35.422399488789	121
5	381	35.422399488789	122
5	381	35.422399488789	123
5	381	35.422399488789	124
5	386	35.525377319418	125
5	386	35.525377319418	126
5	386	35.525377319418	127
5	386	35.525377319418	128
5	386	35.525377319418	129
5	403	35.922399488789	130
5	403	35.922399488789	131
5	403	35.922399488789	132
5	403	35.922399488789	133
5	419	37.922399488789	134
5	419	37.922399488789	135
5	419	37.922399488789	136
5	419	37.922399488789	137
5	428	39.922399488789	138
5	428	39.922399488789	139
5	428	39.922399488789	140
5	428	39.922399488789	141
5	429	39.922399488789	142
5	429	39.922399488789	143
5	429	39.922399488789	144
5	429	39.922399488789	145
5	443	40.025377319418	146
5	443	40.025377319418	147
5	443	40.025377319418	148
5	443	40.025377319418	149
5	443	40.025377319418	150
5	471	41.922399488789	151
5	471	41.922399488789	152
5	471	41.922399488789	153
5	471	41.922399488789	154
5	480	43.922399488789	155
5	480	43.922399488789	156
5	480	43.922399488789	157
5	480	43.922399488789	158
5	489	44.422399488789	159
5	489	44.422399488789	160
5	489	44.422399488789	161
5	489	44.422399488789	162
5	494	44.525377319418	163
5	494	44.525377319418	164
5	494	44.525377319418	165
5	494	44.525377319418	166
5	494	44.525377319418	167
5	523	45.922399488789	168
5	523	45.922399488789	169
5	523	45.922399488789	170
5	523	45.922399488789	171
5	532	47.922399488789	172
5	532	47.922399488789	173
5	532	47.922399488789	174
5	532	47.922399488789	175
5	541	48.922399488789	176
5	541	48.922399488789	177
5	541	48.922399488789	178
5	541	48.922399488789	179
5	546	49.025377319418	180
5	546	49.025377319418	181
5	546	49.025377319418	182
5	546	49.025377319418	183
5	546	49.025377319418	184
5	570	49.922399488789	185
5	570	49.922399488789	186
5	570	49.922399488789	187
5	570	49.922399488789	188
5	584	51.922399488789	189
5	584	51.922399488789	190
5	584	51.922399488789	191
5	584	51.922399488789	192
5	593	53.422399488789	193
5	593	53.422399488789	194
5	593	53.422399488789	195
5	593	53.422399488789	196
5	598	53.525377319418	197
5	598	53.525377319418	198
5	598	53.525377319418	199
5	598	53.525377319418	200
5	598	53.525377319418	201
5	615	53.922399488789	202
5	615	53.922399488789	203
5	615	53.922399488789	204
5	615	53.922399488789	205
5	636	55.922399488789	206
5	636	55.922399488789	207
5	636	55.922399488789	208
5	636	55.922399488789	209
5	645	57.922399488789	210
5	645	57.922399488789	211
5	645	57.922399488789	212
5	645	57.922399488789	213
5	646	57.922399488789	214
5	646	57.922399488789	215
5	646	57.922399488789	216
5	646	57.922399488789	217
5	655	58.025377319418	218
5	655	58.025377319418	219
5	655	58.025377319418	220
5	655	58.025377319418	221
5	655	58.025377319418	222
5	683	59.922399488789	223
5	683	59.922399488789	224
5	683	59.922399488789	225
5	683	59.922399488789	226
5	697	61.922399488789	227
5	697	61.922399488789	228
5	697	61.922399488789	229
5	697	61.922399488789	230
5	706	62.422399488789	231
5	706	62.422399488789	232
5	706	62.422399488789	233
5	706	62.422399488789	234
5	711	62.525377319418	235
5	711	62.525377319418	236
5	711	62.525377319418	237
5	711	62.525377319418	238
5	711	62.525377319418	239
5	735	63.922399488789	240
5	735	63.922399488789	241
5	735	63.922399488789	242
5	735	63.922399488789	243
5	749	65.922399488789	244
5	749	65.922399488789	245
5	749	65.922399488789	246
5	749	65.922399488789	247
5	758	66.922399488789	248
5	758	66.922399488789	249
5	758	66.922399488789	250
5	758	66.922399488789	251
5	763	67.025377319418	252
5	763	67.025377319418	253
5	763	67.025377319418	254
5	763	67.025377319418	255
5	763	67.025377319418	256
5	787	67.922399488789	257
5	787	67.922399488789	258
5	787	67.922399488789	259
5	787	67.922399488789	260
5	796	69.922399488789	261
5	796	69.922399488789	262
5	796	69.922399488789	263
5	796	69.922399488789	264
5	810	71.422399488789	265
5	810	71.422399488789	266
5	810	71.422399488789	267
5	810	71.422399488789	268
5	815	71.525377319418	269
5	815	71.525377319418	270
5	815	71.525377319418	271
5	815	71.525377319418	272
5	815	71.525377319418	273
5	832	71.922399488789	274
5	832	71.922399488789	275
5	832	71.922399488789	276
5	832	71.922399488789	277
5	848	73.922399488789	278
5	848	73.922399488789	279
5	848	73.922399488789	280
5	848	73.922399488789	281
5	862	75.922399488789	282
5	862	75.922399488789	283
5	862	75.922399488789	284
5	862	75.922399488789	285
5	863	75.922399488789	286
5	863	75.922399488789	287
5	863	75.922399488789	288
5	863	75.922399488789	289
5	872	76.025377319418	290
5	872	76.025377319418	291
5	872	76.025377319418	292
5	872	76.025377319418	293
5	872	76.025377319418	294
5	900	77.922399488789	295
5	900	77.922399488789	296
5	900	77.922399488789	297
5	900	77.922399488789	298
5	909	79.922399488789	299
5	909	79.922399488789	300
5	909	79.922399488789	301
5	909	79.922399488789	302
5	923	80.422399488789	303
5	923	80.422399488789	304
5	923	80.422399488789	305
5	923	80.422399488789	306
5	928	80.525377319418	307
5	928	80.525377319418	308
5	928	80.525377319418	309
5	928	80.525377319418	310
5	928	80.525377319418	311
5	952	81.922399488789	312
5	952	81.922399488789	313
5	952	81.922399488789	314
5	952	81.922399488789	315
5	961	83.922399488789	316
5	961	83.922399488789	317
5	961	83.922399488789	318
5	961	83.922399488789	319
5	970	84.922399488789	320
5	970	84.922399488789	321
5	970	84.922399488789	322
5	970	84.922399488789	323
5	980	85.025377319418	324
5	980	85.025377319418	325
5	980	85.025377319418	326
5	980	85.025377319418	327
5	980	85.025377319418	328
5	1004	85.922399488789	329
5	1004	85.922399488789	330
5	1004	85.922399488789	331
5	1004	85.922399488789	332
5	1013	87.922399488789	333
5	1013	87.922399488789	334
5	1013	87.922399488789	335
5	1013	87.922399488789	336
5	1022	89.422399488789	337
5	1022	89.422399488789	338
5	1022	89.422399488789	339
5	1022	89.422399488789	340
5	1027	89.525377319418	341
5	1027	89.525377319418	342
5	1027	89.525377319418	343
5	1027	89.525377319418	344
5	1027	89.525377319418	345
5	1044	89.922399488789	346
5	1044	89.922399488789	347
5	1044	89.922399488789	348
5	1044	89.922399488789	349
5	1065	91.922399488789	350
5	1065	91.922399488789	351
5	1065	91.922399488789	352
5	1065	91.922399488789	353
5	1074	93.922399488789	354
5	1074	93.922399488789	355
5	1074	93.922399488789	356
5	1074	93.922399488789	357
5	1075	93.922399488789	358
5	1075	93.922399488789	359
5	1075	93.922399488789	360
5	1075	93.922399488789	361
5	1084	94.025377319418	362
5	1084	94.025377319418	363
5	1084	94.025377319418	364
5	1084	94.025377319418	365
5	1084	94.025377319418	366
5	1117	95.922399488789	367
5	1117	95.922399488789	368
5	1117	95.922399488789	369
5	1117	95.922399488789	370
5	1126	97.922399488789	371
5	1126	97.922399488789	372
5	1126	97.922399488789	373
5	1126	97.922399488789	374
5	1135	98.422399488789	375
5	1135	98.422399488789	376
5	1135	98.422399488789	377
5	1135	98.422399488789	378
5	1140	98.525377319418	379
5	1140	98.525377319418	380
5	1140	98.525377319418	381
5	1140	98.525377319418	382
5	1140	98.525377319418	383
5	1164	99.922399488789	384
5	1164	99.922399488789	385
5	1164	99.922399488789	386
5	1164	99.922399488789	387
5	1178	101.922399488789	388
5	1178	101.922399488789	389
5	1178	101.922399488789	390
5	1178	101.922399488789	391
5	1187	102.922399488789	392
5	1187	102.922399488789	393
5	1187	102.922399488789	394
5	1187	102.922399488789	395
5	1192	103.025377319418	396
5	1192	103.025377319418	397
5	1192	103.025377319418	398
5	1192	103.025377319418	399
5	1192	103.025377319418	400
5	1216	103.922399488789	401
5	1216	103.922399488789	402
5	1216	103.922399488789	403
5	1216	103.922399488789	404
5	1230	105.922399488789	405
5	1230	105.922399488789	406
5	1230	105.922399488789	407
5	1230	105.922399488789	408
5	1239	107.422399488789	409
5	1239	107.422399488789	410
5	1239	107.422399488789	411
5	1239	107.422399488789	412
5	1244	107.525377319418	413
5	1244	107.525377319418	414
5	1244	107.525377319418	415
5	1244	107.525377319418	416
5	1244	107.525377319418	417
5	1261	107.922399488789	418
5	1261	107.922399488789	419
5	1261	107.922399488789	420
5	1261	107.922399488789	421
5	1277	109.922399488789	422
5	1277	109.922399488789	423
5	1277	109.922399488789	424
5	1277	109.922399488789	425
5	1291	111.922399488789	426
5	1291	111.922399488789	427
5	1291	111.922399488789	428
5	1291	111.922399488789	429
5	1292	111.922399488789	430
5	1292	111.922399488789	431
5	1292	111.922399488789	432
5	1292	111.922399488789	433
5	1301	112.025377319418	434
5	1301	112.025377319418	435
5	1301	112.025377319418	436
5	1301	112.025377319418	437
5	1301	112.025377319418	438
5	1329	113.922399488789	439
5	1329	113.922399488789	440
5	1329	113.922399488789	441
5	1329	113.922399488789	442
5	1343	115.922399488789	443
5	1343	115.922399488789	444
5	1343	115.922399488789	445
5	1343	115.922399488789	446
5	1352	116.422399488789	447
5	1352	116.422399488789	448
5	1352	116.422399488789	449
5	1352	116.422399488789	450
5	1357	116.525377319418	451
5	1357	116.525377319418	452
5	1357	116.525377319418	453
5	1357	116.525377319418	454
5	1357	116.525377319418	455
5	1381	117.922399488789	456
5	1381	117.922399488789	457
5	1381	117.922399488789	458
5	1381	117.922399488789	459
5	1390	119.922399488789	460
5	1390	119.922399488789	461
5	1390	119.922399488789	462
5	1390	119.922399488789	463
5	1404	120.922399488789	464
5	1404	120.922399488789	465
5	1404	120.922399488789	466
5	1404	120.922399488789	467
5	1409	121.025377319418	468
5	1409	121.025377319418	469
5	1409	121.025377319418	470
5	1409	121.025377319418	471
5	1409	121.025377319418	472
5	1433	121.922399488789	473
5	1433	121.922399488789	474
5	1433	121.922399488789	475
5	1433	121.922399488789	476
5	1442	123.922399488789	477
5	1442	123.922399488789	478
5	1442	123.922399488789	479
5	1442	123.922399488789	480
5	1456	125.422399488789	481
5	1456	125.422399488789	482
5	1456	125.422399488789	483
5	1456	125.422399488789	484
5	1461	125.525377319418	485
5	1461	125.525377319418	486
5	1461	125.525377319418	487
5	1461	125.525377319418	488
5	1461	125.525377319418	489
5	1478	125.922399488789	490
5	1478	125.922399488789	491
5	1478	125.922399488789	492
5	1478	125.922399488789	493
5	1494	127.922399488789	494
5	1494	127.922399488789	495
5	1494	127.922399488789	496
5	1494	127.922399488789	497
5	1503	129.922399488789	498
5	1503	129.922399488789	499
5	1503	129.922399488789	500
5	1503	129.922399488789	501
5	1504	129.922399488789	502
5	1504	129.922399488789	503
5	1504	129.922399488789	504
5	1504	129.922399488789	505
5	1518	130.025377319418	506
5	1518	130.025377319418	507
5	1518	130.025377319418	508
5	1518	130.025377319418	509
5	1518	130.025377319418	510
5	1546	131.922399488789	511
5	1546	131.922399488789	512
5	1546	131.922399488789	513
5	1546	131.922399488789	514
5	1555	133.922399488789	515
5	1555	133.922399488789	516
5	1555	133.922399488789	517
5	1555	133.922399488789	518
5	1564	134.422399488789	519
5	1564	134.422399488789	520
5	1564	134.422399488789	521
5	1564	134.422399488789	522
5	1569	134.525377319418	523
5	1569	134.525377319418	524
5	1569	134.525377319418	525
5	1569	134.525377319418	526
5	1569	134.525377319418	527
5	1598	135.922399488789	528
5	1598	135.922399488789	529
5	1598	135.922399488789	530
5	1598	135.922399488789	531
5	1607	137.922399488789	532
5	1607	137.922399488789	533
5	1607	137.922399488789	534
5	1607	137.922399488789	535
5	1616	138.922399488789	536
5	1616	138.922399488789	537
5	1616	138.922399488789	538
5	1616	138.922399488789	539
5	1621	139.025377319418	540
5	1621	139.025377319418	541
5	1621	139.025377319418	542
5	1621	139.025377319418	543
5	1621	139.025377319418	544
5	1645	139.922399488789	545
5	1645	139.922399488789	546
5	1645	139.922399488789	547
5	1645	139.922399488789	548
5	1659	141.922399488789	549
5	1659	141.922399488789	550
5	1659	141.922399488789	551
5	1659	141.922399488789	552
5	1668	143.422399488789	553
5	1668	143.422399488789	554
5	1668	143.422399488789	555
5	1668	143.422399488789	556
5	1673	143.525377319418	557
5	1673	143.525377319418	558
5	1673	143.525377319418	559
5	1673	143.525377319418	560
5	1673	143.525377319418	561
5	1690	143.922399488789	562
5	1690	143.922399488789	563
5	1690	143.922399488789	564
5	1690	143.922399488789	565
5	1711	145.922399488789	566
5	1711	145.922399488789	567
5	1711	145.922399488789	568
5	1711	145.922399488789	569
5	1720	147.922399488789	570
5	1720	147.922399488789	571
5	1720	147.922399488789	572
5	1720	147.922399488789	573
5	1721	147.922399488789	574
5	1721	147.922399488789	575
5	1721	147.922399488789	576
5	1721	147.922399488789	577
5	1730	148.025377319418	578
5	1730	148.025377319418	579
5	1730	148.025377319418	580
5	1730	148.025377319418	581
5	1730	148.025377319418	582
5	1758	149.922399488789	583
5	1758	149.922399488789	584
5	1758	149.922399488789	585
5	1758	149.922399488789	586
5	1772	151.922399488789	587
5	1772	151.922399488789	588
5	1772	151.922399488789	589
5	1772	151.922399488789	590
5	1781	152.422399488789	591
5	1781	152.422399488789	592
5	1781	152.422399488789	593
5	1781	152.422399488789	594
5	1786	152.525377319418	595
5	1786	152.525377319418	596
5	1786	152.525377319418	597
5	1786	152.525377319418	598
5	1786	152.525377319418	599
5	1810	153.922399488789	600
5	1810	153.922399488789	601
5	1810	153.922399488789	602
5	1810	153.922399488789	603
5	1824	155.922399488789	604
5	1824	155.922399488789	605
5	1824	155.922399488789	606
5	1824	155.922399488789	607
5	1833	156.922399488789	608
5	1833	156.922399488789	609
5	1833	156.922399488789	610
5	1833	156.922399488789	611
5	1840	157.043817973736	612
5	1840	157.043817973736	613
5	1840	157.043817973736	614
5	1840	157.043817973736	615
5	1840	157.043817973736	616
5	1862	157.922399488789	617
5	1862	157.922399488789	618
5	1862	157.922399488789	619
5	1862	157.922399488789	620
5	1872	159.922399488789	621
5	1872	159.922399488789	622
5	1872	159.922399488789	623
5	1872	159.922399488789	624
5	1886	161.422399488789	625
5	1886	161.422399488789	626
5	1886	161.422399488789	627
5	1886	161.422399488789	628
5	1891	161.525377319418	629
5	1891	161.525377319418	630
5	1891	161.525377319418	631
5	1891	161.525377319418	632
5	1891	161.525377319418	633
5	1908	161.922399488789	634
5	1908	161.922399488789	635
5	1908	161.922399488789	636
5	1908	161.922399488789	637
5	1924	163.922399488789	638
5	1924	163.922399488789	639
5	1924	163.922399488789	640
5	1924	163.922399488789	641
5	1937	165.922399488789	642
5	1937	165.922399488789	643
5	1937	165.922399488789	644
5	1937	165.922399488789	645
5	1938	165.922399488789	646
5	1938	165.922399488789	647
5	1938	165.922399488789	648
5	1938	165.922399488789	649
5	1948	166.025377319418	650
5	1948	166.025377319418	651
5	1948	166.025377319418	652
5	1948	166.025377319418	653
5	1948	166.025377319418	654
5	1976	167.922399488789	655
5	1976	167.922399488789	656
5	1976	167.922399488789	657
5	1976	167.922399488789	658
5	1985	169.922399488789	659
5	1985	169.922399488789	660
5	1985	169.922399488789	661
5	1985	169.922399488789	662
5	1998	170.422399488789	663
5	1998	170.422399488789	664
5	1998	170.422399488789	665
5	1998	170.422399488789	666
5	2003	170.525377319418	667
5	2003	170.525377319418	668
5	2003	170.525377319418	669
5	2003	170.525377319418	670
5	2003	170.525377319418	671
5	2028	171.922399488789	672
5	2028	171.922399488789	673
5	2028	171.922399488789	674
5	2028	171.922399488789	675
5	2037	173.922399488789	676
5	2037	173.922399488789	677
5	2037	173.922399488789	678
5	2037	173.922399488789	679
5	2046	174.922399488789	680
5	2046	174.922399488789	681
5	2046	174.922399488789	682
5	2046	174.922399488789	683
5	2055	175.025377319418	684
5	2055	175.025377319418	685
5	2055	175.025377319418	686
5	2055	175.025377319418	687
5	2055	175.025377319418	688
5	2079	175.922399488789	689
5	2079	175.922399488789	690
5	2079	175.922399488789	691
5	2079	175.922399488789	692
5	2089	177.922399488789	693
5	2089	177.922399488789	694
5	2089	177.922399488789	695
5	2089	177.922399488789	696
5	2098	179.422399488789	697
5	2098	179.422399488789	698
5	2098	179.422399488789	699
5	2098	179.422399488789	700
5	2103	179.525377319418	701
5	2103	179.525377319418	702
5	2103	179.525377319418	703
5	2103	179.525377319418	704
5	2103	179.525377319418	705
5	2120	179.922399488789	706
5	2120	179.922399488789	707
5	2120	179.922399488789	708
5	2120	179.922399488789	709
5	2141	181.922399488789	710
5	2141	181.922399488789	711
5	2141	181.922399488789	712
5	2141	181.922399488789	713
5	2150	183.922399488789	714
5	2150	183.922399488789	715
5	2150	183.922399488789	716
5	2150	183.922399488789	717
5	2151	183.922399488789	718
5	2151	183.922399488789	719
5	2151	183.922399488789	720
5	2151	183.922399488789	721
5	2160	184.025377319418	722
5	2160	184.025377319418	723
5	2160	184.025377319418	724
5	2160	184.025377319418	725
5	2160	184.025377319418	726
5	2192	185.922399488789	727
5	2192	185.922399488789	728
5	2192	185.922399488789	729
5	2192	185.922399488789	730
5	2202	187.922399488789	731
5	2202	187.922399488789	732
5	2202	187.922399488789	733
5	2202	187.922399488789	734
5	2211	188.422399488789	735
5	2211	188.422399488789	736
5	2211	188.422399488789	737
5	2211	188.422399488789	738
5	2216	188.525377319418	739
5	2216	188.525377319418	740
5	2216	188.525377319418	741
5	2216	188.525377319418	742
5	2216	188.525377319418	743
5	2240	189.922399488789	744
5	2240	189.922399488789	745
5	2240	189.922399488789	746
5	2240	189.922399488789	747
5	2254	191.922399488789	748
5	2254	191.922399488789	749
5	2254	191.922399488789	750
5	2254	191.922399488789	751
5	2263	192.922399488789	752
5	2263	192.922399488789	753
5	2263	192.922399488789	754
5	2263	192.922399488789	755
5	2268	193.025377319418	756
5	2268	193.025377319418	757
5	2268	193.025377319418	758
5	2268	193.025377319418	759
5	2268	193.025377319418	760
5	2292	193.922399488789	761
5	2292	193.922399488789	762
5	2292	193.922399488789	763
5	2292	193.922399488789	764
5	2305	195.922399488789	765
5	2305	195.922399488789	766
5	2305	195.922399488789	767
5	2305	195.922399488789	768
5	2315	197.422399488789	769
5	2315	197.422399488789	770
5	2315	197.422399488789	771
5	2315	197.422399488789	772
5	2320	197.525377319418	773
5	2320	197.525377319418	774
5	2320	197.525377319418	775
5	2320	197.525377319418	776
5	2320	197.525377319418	777
5	2337	197.922399488789	778
5	2337	197.922399488789	779
5	2337	197.922399488789	780
5	2337	197.922399488789	781
5	2353	199.922399488789	782
5	2353	199.922399488789	783
5	2353	199.922399488789	784
5	2353	199.922399488789	785
5	2367	201.922399488789	786
5	2367	201.922399488789	787
5	2367	201.922399488789	788
5	2367	201.922399488789	789
5	2368	201.922399488789	790
5	2368	201.922399488789	791
5	2368	201.922399488789	792
5	2368	201.922399488789	793
5	2377	202.025377319418	794
5	2377	202.025377319418	795
5	2377	202.025377319418	796
5	2377	202.025377319418	797
5	2377	202.025377319418	798
5	2405	203.922399488789	799
5	2405	203.922399488789	800
5	2405	203.922399488789	801
5	2405	203.922399488789	802
5	2418	205.922399488789	803
5	2418	205.922399488789	804
5	2418	205.922399488789	805
5	2418	205.922399488789	806
5	2428	206.422399488789	807
5	2428	206.422399488789	808
5	2428	206.422399488789	809
5	2428	206.422399488789	810
5	2433	206.525377319418	811
5	2433	206.525377319418	812
5	2433	206.525377319418	813
5	2433	206.525377319418	814
5	2433	206.525377319418	815
5	2457	207.922399488789	816
5	2457	207.922399488789	817
5	2457	207.922399488789	818
5	2457	207.922399488789	819
5	2466	209.922399488789	820
5	2466	209.922399488789	821
5	2466	209.922399488789	822
5	2466	209.922399488789	823
5	2479	210.922399488789	824
5	2479	210.922399488789	825
5	2479	210.922399488789	826
5	2479	210.922399488789	827
5	2485	211.025377319418	828
5	2485	211.025377319418	829
5	2485	211.025377319418	830
5	2485	211.025377319418	831
5	2485	211.025377319418	832
5	2509	211.922399488789	833
5	2509	211.922399488789	834
5	2509	211.922399488789	835
5	2509	211.922399488789	836
5	2518	213.922399488789	837
5	2518	213.922399488789	838
5	2518	213.922399488789	839
5	2518	213.922399488789	840
5	2531	215.422399488789	841
5	2531	215.422399488789	842
5	2531	215.422399488789	843
5	2531	215.422399488789	844
5	2536	215.525377319418	845
5	2536	215.525377319418	846
5	2536	215.525377319418	847
5	2536	215.525377319418	848
5	2536	215.525377319418	849
5	2553	215.922399488789	850
5	2553	215.922399488789	851
5	2553	215.922399488789	852
5	2553	215.922399488789	853
5	2570	217.922399488789	854
5	2570	217.922399488789	855
5	2570	217.922399488789	856
5	2570	217.922399488789	857
5	2579	219.922399488789	858
5	2579	219.922399488789	859
5	2579	219.922399488789	860
5	2579	219.922399488789	861
5	2580	219.922399488789	862
5	2580	219.922399488789	863
5	2580	219.922399488789	864
5	2580	219.922399488789	865
5	2593	220.025377319418	866
5	2593	220.025377319418	867
5	2593	220.025377319418	868
5	2593	220.025377319418	869
5	2593	220.025377319418	870
5	2622	221.922399488789	871
5	2622	221.922399488789	872
5	2622	221.922399488789	873
5	2622	221.922399488789	874
5	2631	223.922399488789	875
5	2631	223.922399488789	876
5	2631	223.922399488789	877
5	2631	223.922399488789	878
5	2640	224.422399488789	879
5	2640	224.422399488789	880
5	2640	224.422399488789	881
5	2640	224.422399488789	882
5	2645	224.525377319418	883
5	2645	224.525377319418	884
5	2645	224.525377319418	885
5	2645	224.525377319418	886
5	2645	224.525377319418	887
5	2673	225.922399488789	888
5	2673	225.922399488789	889
5	2673	225.922399488789	890
5	2673	225.922399488789	891
5	2684	227.922399488789	892
5	2684	227.922399488789	893
5	2684	227.922399488789	894
5	2684	227.922399488789	895
5	2693	228.922399488789	896
5	2693	228.922399488789	897
5	2693	228.922399488789	898
5	2693	228.922399488789	899
5	2698	229.025377319418	900
5	2698	229.025377319418	901
5	2698	229.025377319418	902
5	2698	229.025377319418	903
5	2698	229.025377319418	904
5	2722	229.922399488789	905
5	2722	229.922399488789	906
5	2722	229.922399488789	907
5	2722	229.922399488789	908
5	2735	231.922399488789	909
5	2735	231.922399488789	910
5	2735	231.922399488789	911
5	2735	231.922399488789	912
5	2745	233.422399488789	913
5	2745	233.422399488789	914
5	2745	233.422399488789	915
5	2745	233.422399488789	916
5	2750	233.525377319418	917
5	2750	233.525377319418	918
5	2750	233.525377319418	919
5	2750	233.525377319418	920
5	2750	233.525377319418	921
5	2767	233.922399488789	922
5	2767	233.922399488789	923
5	2767	233.922399488789	924
5	2767	233.922399488789	925
5	2786	235.922399488789	926
5	2786	235.922399488789	927
5	2786	235.922399488789	928
5	2786	235.922399488789	929
5	2797	237.922399488789	930
5	2797	237.922399488789	931
5	2797	237.922399488789	932
5	2797	237.922399488789	933
5	2798	237.922399488789	934
5	2798	237.922399488789	935
5	2798	237.922399488789	936
5	2798	237.922399488789	937
5	2807	238.025377319418	938
5	2807	238.025377319418	939
5	2807	238.025377319418	940
5	2807	238.025377319418	941
5	2807	238.025377319418	942
5	2835	239.922399488789	943
5	2835	239.922399488789	944
5	2835	239.922399488789	945
5	2835	239.922399488789	946
5	2848	241.922399488789	947
5	2848	241.922399488789	948
5	2848	241.922399488789	949
5	2848	241.922399488789	950
5	2858	242.422399488789	951
5	2858	242.422399488789	952
5	2858	242.422399488789	953
5	2858	242.422399488789	954
5	2863	242.525377319418	955
5	2863	242.525377319418	956
5	2863	242.525377319418	957
5	2863	242.525377319418	958
5	2863	242.525377319418	959
5	2887	243.922399488789	960
5	2887	243.922399488789	961
5	2887	243.922399488789	962
5	2887	243.922399488789	963
5	2899	245.922399488789	964
5	2899	245.922399488789	965
5	2899	245.922399488789	966
5	2899	245.922399488789	967
5	2909	246.922399488789	968
5	2909	246.922399488789	969
5	2909	246.922399488789	970
5	2909	246.922399488789	971
5	2915	247.025377319418	972
5	2915	247.025377319418	973
5	2915	247.025377319418	974
5	2915	247.025377319418	975
5	2915	247.025377319418	976
5	2939	247.922399488789	977
5	2939	247.922399488789	978
5	2939	247.922399488789	979
5	2939	247.922399488789	980
5	2948	249.922399488789	981
5	2948	249.922399488789	982
5	2948	249.922399488789	983
5	2948	249.922399488789	984
5	2961	251.422399488789	985
5	2961	251.422399488789	986
5	2961	251.422399488789	987
5	2961	251.422399488789	988
5	2966	251.525377319418	989
5	2966	251.525377319418	990
5	2966	251.525377319418	991
5	2966	251.525377319418	992
5	2966	251.525377319418	993
5	2983	251.922399488789	994
5	2983	251.922399488789	995
5	2983	251.922399488789	996
5	2983	251.922399488789	997
5	3000	253.922399488789	998
5	3000	253.922399488789	999
5	3000	253.922399488789	1000
5	3000	253.922399488789	1001
5	3012	255.922399488789	1002
5	3012	255.922399488789	1003
5	3012	255.922399488789	1004
5	3012	255.922399488789	1005
5	3013	255.922399488789	1006
5	3013	255.922399488789	1007
5	3013	255.922399488789	1008
5	3013	255.922399488789	1009
5	3023	256.025377319418	1010
5	3023	256.025377319418	1011
5	3023	256.025377319418	1012
5	3023	256.025377319418	1013
5	3023	256.025377319418	1014
5	3052	257.922399488789	1015
5	3052	257.922399488789	1016
5	3052	257.922399488789	1017
5	3052	257.922399488789	1018
5	3061	259.922399488789	1019
5	3061	259.922399488789	1020
5	3061	259.922399488789	1021
5	3061	259.922399488789	1022
5	3073	260.422399488789	1023
5	3073	260.422399488789	1024
5	3073	260.422399488789	1025
5	3073	260.422399488789	1026
5	3078	260.525377319418	1027
5	3078	260.525377319418	1028
5	3078	260.525377319418	1029
5	3078	260.525377319418	1030
5	3078	260.525377319418	1031
5	3103	261.922399488789	1032
5	3103	261.922399488789	1033
5	3103	261.922399488789	1034
5	3103	261.922399488789	1035
5	3113	263.922399488789	1036
5	3113	263.922399488789	1037
5	3113	263.922399488789	1038
5	3113	263.922399488789	1039
5	3122	264.922399488789	1040
5	3122	264.922399488789	1041
5	3122	264.922399488789	1042
5	3122	264.922399488789	1043
5	3130	265.025377319418	1044
5	3130	265.025377319418	1045
5	3130	265.025377319418	1046
5	3130	265.025377319418	1047
5	3130	265.025377319418	1048
5	3154	265.922399488789	1049
5	3154	265.922399488789	1050
5	3154	265.922399488789	1051
5	3154	265.922399488789	1052
5	3165	267.922399488789	1053
5	3165	267.922399488789	1054
5	3165	267.922399488789	1055
5	3165	267.922399488789	1056
5	3174	269.422399488789	1057
5	3174	269.422399488789	1058
5	3174	269.422399488789	1059
5	3174	269.422399488789	1060
5	3179	269.525377319418	1061
5	3179	269.525377319418	1062
5	3179	269.525377319418	1063
5	3179	269.525377319418	1064
5	3179	269.525377319418	1065
5	3196	269.922399488789	1066
5	3196	269.922399488789	1067
5	3196	269.922399488789	1068
5	3196	269.922399488789	1069
5	3216	271.922399488789	1070
5	3216	271.922399488789	1071
5	3216	271.922399488789	1072
5	3216	271.922399488789	1073
5	3226	273.922399488789	1074
5	3226	273.922399488789	1075
5	3226	273.922399488789	1076
5	3226	273.922399488789	1077
5	3227	273.922399488789	1078
5	3227	273.922399488789	1079
5	3227	273.922399488789	1080
5	3227	273.922399488789	1081
5	3236	274.025377319418	1082
5	3236	274.025377319418	1083
5	3236	274.025377319418	1084
5	3236	274.025377319418	1085
5	3236	274.025377319418	1086
5	3267	275.922399488789	1087
5	3267	275.922399488789	1088
5	3267	275.922399488789	1089
5	3267	275.922399488789	1090
5	3278	277.922399488789	1091
5	3278	277.922399488789	1092
5	3278	277.922399488789	1093
5	3278	277.922399488789	1094
5	3287	278.422399488789	1095
5	3287	278.422399488789	1096
5	3287	278.422399488789	1097
5	3287	278.422399488789	1098
5	3292	278.525377319418	1099
5	3292	278.525377319418	1100
5	3292	278.525377319418	1101
5	3292	278.525377319418	1102
5	3292	278.525377319418	1103
5	3316	279.922399488789	1104
5	3316	279.922399488789	1105
5	3316	279.922399488789	1106
5	3316	279.922399488789	1107
5	3329	281.922399488789	1108
5	3329	281.922399488789	1109
5	3329	281.922399488789	1110
5	3329	281.922399488789	1111
5	3339	282.922399488789	1112
5	3339	282.922399488789	1113
5	3339	282.922399488789	1114
5	3339	282.922399488789	1115
5	3344	283.025377319418	1116
5	3344	283.025377319418	1117
5	3344	283.025377319418	1118
5	3344	283.025377319418	1119
5	3344	283.025377319418	1120
5	3368	283.922399488789	1121
5	3368	283.922399488789	1122
5	3368	283.922399488789	1123
5	3368	283.922399488789	1124
5	3380	285.922399488789	1125
5	3380	285.922399488789	1126
5	3380	285.922399488789	1127
5	3380	285.922399488789	1128
5	3391	287.422399488789	1129
5	3391	287.422399488789	1130
5	3391	287.422399488789	1131
5	3391	287.422399488789	1132
5	3396	287.525377319418	1133
5	3396	287.525377319418	1134
5	3396	287.525377319418	1135
5	3396	287.525377319418	1136
5	3396	287.525377319418	1137
5	3413	287.922399488789	1138
5	3413	287.922399488789	1139
5	3413	287.922399488789	1140
5	3413	287.922399488789	1141
5	3429	289.922399488789	1142
5	3429	289.922399488789	1143
5	3429	289.922399488789	1144
5	3429	289.922399488789	1145
5	3442	291.922399488789	1146
5	3442	291.922399488789	1147
5	3442	291.922399488789	1148
5	3442	291.922399488789	1149
5	3443	291.922399488789	1150
5	3443	291.922399488789	1151
5	3443	291.922399488789	1152
5	3443	291.922399488789	1153
5	3453	292.025377319418	1154
5	3453	292.025377319418	1155
5	3453	292.025377319418	1156
5	3453	292.025377319418	1157
5	3453	292.025377319418	1158
5	3481	293.922399488789	1159
5	3481	293.922399488789	1160
5	3481	293.922399488789	1161
5	3481	293.922399488789	1162
5	3493	295.922399488789	1163
5	3493	295.922399488789	1164
5	3493	295.922399488789	1165
5	3493	295.922399488789	1166
5	3503	296.422399488789	1167
5	3503	296.422399488789	1168
5	3503	296.422399488789	1169
5	3503	296.422399488789	1170
5	3508	296.525377319418	1171
5	3508	296.525377319418	1172
5	3508	296.525377319418	1173
5	3508	296.525377319418	1174
5	3508	296.525377319418	1175
5	3533	297.922399488789	1176
5	3533	297.922399488789	1177
5	3533	297.922399488789	1178
5	3533	297.922399488789	1179
5	3542	299.922399488789	1180
5	3542	299.922399488789	1181
5	3542	299.922399488789	1182
5	3542	299.922399488789	1183
5	3554	300.922399488789	1184
5	3554	300.922399488789	1185
5	3554	300.922399488789	1186
5	3554	300.922399488789	1187
5	3560	301.025377319418	1188
5	3560	301.025377319418	1189
5	3560	301.025377319418	1190
5	3560	301.025377319418	1191
5	3560	301.025377319418	1192
5	3584	301.922399488789	1193
5	3584	301.922399488789	1194
5	3584	301.922399488789	1195
5	3584	301.922399488789	1196
5	3594	303.922399488789	1197
5	3594	303.922399488789	1198
5	3594	303.922399488789	1199
5	3594	303.922399488789	1200
5	3606	305.422399488789	1201
5	3606	305.422399488789	1202
5	3606	305.422399488789	1203
5	3606	305.422399488789	1204
5	3611	305.525377319418	1205
5	3611	305.525377319418	1206
5	3611	305.525377319418	1207
5	3611	305.525377319418	1208
5	3611	305.525377319418	1209
5	3628	305.922399488789	1210
5	3628	305.922399488789	1211
5	3628	305.922399488789	1212
5	3628	305.922399488789	1213
5	3646	307.922399488789	1214
5	3646	307.922399488789	1215
5	3646	307.922399488789	1216
5	3646	307.922399488789	1217
5	3655	309.922399488789	1218
5	3655	309.922399488789	1219
5	3655	309.922399488789	1220
5	3655	309.922399488789	1221
5	3656	309.922399488789	1222
5	3656	309.922399488789	1223
5	3656	309.922399488789	1224
5	3656	309.922399488789	1225
5	3668	310.025377319418	1226
5	3668	310.025377319418	1227
5	3668	310.025377319418	1228
5	3668	310.025377319418	1229
5	3668	310.025377319418	1230
5	3697	311.922399488789	1231
5	3697	311.922399488789	1232
5	3697	311.922399488789	1233
5	3697	311.922399488789	1234
5	3707	313.922399488789	1235
5	3707	313.922399488789	1236
5	3707	313.922399488789	1237
5	3707	313.922399488789	1238
5	3716	314.422399488789	1239
5	3716	314.422399488789	1240
5	3716	314.422399488789	1241
5	3716	314.422399488789	1242
5	3721	314.525377319418	1243
5	3721	314.525377319418	1244
5	3721	314.525377319418	1245
5	3721	314.525377319418	1246
5	3721	314.525377319418	1247
5	3748	315.922399488789	1248
5	3748	315.922399488789	1249
5	3748	315.922399488789	1250
5	3748	315.922399488789	1251
5	3759	317.922399488789	1252
5	3759	317.922399488789	1253
5	3759	317.922399488789	1254
5	3759	317.922399488789	1255
5	3768	318.922399488789	1256
5	3768	318.922399488789	1257
5	3768	318.922399488789	1258
5	3768	318.922399488789	1259
5	3773	319.025377319418	1260
5	3773	319.025377319418	1261
5	3773	319.025377319418	1262
5	3773	319.025377319418	1263
5	3773	319.025377319418	1264
5	3797	319.922399488789	1265
5	3797	319.922399488789	1266
5	3797	319.922399488789	1267
5	3797	319.922399488789	1268
5	3810	321.922399488789	1269
5	3810	321.922399488789	1270
5	3810	321.922399488789	1271
5	3810	321.922399488789	1272
5	3820	323.422399488789	1273
5	3820	323.422399488789	1274
5	3820	323.422399488789	1275
5	3820	323.422399488789	1276
5	3825	323.525377319418	1277
5	3825	323.525377319418	1278
5	3825	323.525377319418	1279
5	3825	323.525377319418	1280
5	3825	323.525377319418	1281
5	3842	323.922399488789	1282
5	3842	323.922399488789	1283
5	3842	323.922399488789	1284
5	3842	323.922399488789	1285
5	3861	325.922399488789	1286
5	3861	325.922399488789	1287
5	3861	325.922399488789	1288
5	3861	325.922399488789	1289
5	3872	327.922399488789	1290
5	3872	327.922399488789	1291
5	3872	327.922399488789	1292
5	3872	327.922399488789	1293
5	3873	327.922399488789	1294
5	3873	327.922399488789	1295
5	3873	327.922399488789	1296
5	3873	327.922399488789	1297
5	3882	328.025377319418	1298
5	3882	328.025377319418	1299
5	3882	328.025377319418	1300
5	3882	328.025377319418	1301
5	3882	328.025377319418	1302
5	3910	329.922399488789	1303
5	3910	329.922399488789	1304
5	3910	329.922399488789	1305
5	3910	329.922399488789	1306
5	3923	331.922399488789	1307
5	3923	331.922399488789	1308
5	3923	331.922399488789	1309
5	3923	331.922399488789	1310
5	3933	332.422399488789	1311
5	3933	332.422399488789	1312
5	3933	332.422399488789	1313
5	3933	332.422399488789	1314
5	3938	332.525377319418	1315
5	3938	332.525377319418	1316
5	3938	332.525377319418	1317
5	3938	332.525377319418	1318
5	3938	332.525377319418	1319
5	3962	333.922399488789	1320
5	3962	333.922399488789	1321
5	3962	333.922399488789	1322
5	3962	333.922399488789	1323
5	3974	335.922399488789	1324
5	3974	335.922399488789	1325
5	3974	335.922399488789	1326
5	3974	335.922399488789	1327
5	3984	336.922399488789	1328
5	3984	336.922399488789	1329
5	3984	336.922399488789	1330
5	3984	336.922399488789	1331
5	3990	337.025377319418	1332
5	3990	337.025377319418	1333
5	3990	337.025377319418	1334
5	3990	337.025377319418	1335
5	3990	337.025377319418	1336
5	4014	337.922399488789	1337
5	4014	337.922399488789	1338
5	4014	337.922399488789	1339
5	4014	337.922399488789	1340
5	4023	339.922399488789	1341
5	4023	339.922399488789	1342
5	4023	339.922399488789	1343
5	4023	339.922399488789	1344
5	4036	341.422399488789	1345
5	4036	341.422399488789	1346
5	4036	341.422399488789	1347
5	4036	341.422399488789	1348
5	4041	341.525377319418	1349
5	4041	341.525377319418	1350
5	4041	341.525377319418	1351
5	4041	341.525377319418	1352
5	4041	341.525377319418	1353
5	4058	341.922399488789	1354
5	4058	341.922399488789	1355
5	4058	341.922399488789	1356
5	4058	341.922399488789	1357
5	4075	343.922399488789	1358
5	4075	343.922399488789	1359
5	4075	343.922399488789	1360
5	4075	343.922399488789	1361
5	4087	345.922399488789	1362
5	4087	345.922399488789	1363
5	4087	345.922399488789	1364
5	4087	345.922399488789	1365
5	4088	345.922399488789	1366
5	4088	345.922399488789	1367
5	4088	345.922399488789	1368
5	4088	345.922399488789	1369
5	4098	346.025377319418	1370
5	4098	346.025377319418	1371
5	4098	346.025377319418	1372
5	4098	346.025377319418	1373
5	4098	346.025377319418	1374
5	4127	347.922399488789	1375
5	4127	347.922399488789	1376
5	4127	347.922399488789	1377
5	4127	347.922399488789	1378
5	4136	349.922399488789	1379
5	4136	349.922399488789	1380
5	4136	349.922399488789	1381
5	4136	349.922399488789	1382
5	4148	350.422399488789	1383
5	4148	350.422399488789	1384
5	4148	350.422399488789	1385
5	4148	350.422399488789	1386
5	4153	350.525377319418	1387
5	4153	350.525377319418	1388
5	4153	350.525377319418	1389
5	4153	350.525377319418	1390
5	4153	350.525377319418	1391
5	4178	351.922399488789	1392
5	4178	351.922399488789	1393
5	4178	351.922399488789	1394
5	4178	351.922399488789	1395
5	4188	353.922399488789	1396
5	4188	353.922399488789	1397
5	4188	353.922399488789	1398
5	4188	353.922399488789	1399
5	4197	354.922399488789	1400
5	4197	354.922399488789	1401
5	4197	354.922399488789	1402
5	4197	354.922399488789	1403
5	4205	355.025377319418	1404
5	4205	355.025377319418	1405
5	4205	355.025377319418	1406
5	4205	355.025377319418	1407
5	4205	355.025377319418	1408
5	4229	355.922399488789	1409
5	4229	355.922399488789	1410
5	4229	355.922399488789	1411
5	4229	355.922399488789	1412
5	4240	357.922399488789	1413
5	4240	357.922399488789	1414
5	4240	357.922399488789	1415
5	4240	357.922399488789	1416
5	4249	359.422399488789	1417
5	4249	359.422399488789	1418
5	4249	359.422399488789	1419
5	4249	359.422399488789	1420
5	4254	359.525377319418	1421
5	4254	359.525377319418	1422
5	4254	359.525377319418	1423
5	4254	359.525377319418	1424
5	4254	359.525377319418	1425
5	4271	359.922399488789	1426
5	4271	359.922399488789	1427
5	4271	359.922399488789	1428
5	4271	359.922399488789	1429
5	4291	361.922399488789	1430
5	4291	361.922399488789	1431
5	4291	361.922399488789	1432
5	4291	361.922399488789	1433
5	4301	363.922399488789	1434
5	4301	363.922399488789	1435
5	4301	363.922399488789	1436
5	4301	363.922399488789	1437
5	4302	363.922399488789	1438
5	4302	363.922399488789	1439
5	4302	363.922399488789	1440
5	4302	363.922399488789	1441
5	4311	364.025377319418	1442
5	4311	364.025377319418	1443
5	4311	364.025377319418	1444
5	4311	364.025377319418	1445
5	4311	364.025377319418	1446
5	4342	365.922399488789	1447
5	4342	365.922399488789	1448
5	4342	365.922399488789	1449
5	4342	365.922399488789	1450
5	4353	367.922399488789	1451
5	4353	367.922399488789	1452
5	4353	367.922399488789	1453
5	4353	367.922399488789	1454
5	4362	368.422399488789	1455
5	4362	368.422399488789	1456
5	4362	368.422399488789	1457
5	4362	368.422399488789	1458
5	4367	368.525377319418	1459
5	4367	368.525377319418	1460
5	4367	368.525377319418	1461
5	4367	368.525377319418	1462
5	4367	368.525377319418	1463
5	4391	369.922399488789	1464
5	4391	369.922399488789	1465
5	4391	369.922399488789	1466
5	4391	369.922399488789	1467
5	4404	371.922399488789	1468
5	4404	371.922399488789	1469
5	4404	371.922399488789	1470
5	4404	371.922399488789	1471
5	4414	372.922399488789	1472
5	4414	372.922399488789	1473
5	4414	372.922399488789	1474
5	4414	372.922399488789	1475
5	4419	373.025377319418	1476
5	4419	373.025377319418	1477
5	4419	373.025377319418	1478
5	4419	373.025377319418	1479
5	4419	373.025377319418	1480
5	4443	373.922399488789	1481
5	4443	373.922399488789	1482
5	4443	373.922399488789	1483
5	4443	373.922399488789	1484
5	4455	375.922399488789	1485
5	4455	375.922399488789	1486
5	4455	375.922399488789	1487
5	4455	375.922399488789	1488
5	4466	377.422399488789	1489
5	4466	377.422399488789	1490
5	4466	377.422399488789	1491
5	4466	377.422399488789	1492
5	4471	377.525377319418	1493
5	4471	377.525377319418	1494
5	4471	377.525377319418	1495
5	4471	377.525377319418	1496
5	4471	377.525377319418	1497
5	4488	377.922399488789	1498
5	4488	377.922399488789	1499
5	4488	377.922399488789	1500
5	4488	377.922399488789	1501
5	4504	379.922399488789	1502
5	4504	379.922399488789	1503
5	4504	379.922399488789	1504
5	4504	379.922399488789	1505
5	4517	381.922399488789	1506
5	4517	381.922399488789	1507
5	4517	381.922399488789	1508
5	4517	381.922399488789	1509
5	4518	381.922399488789	1510
5	4518	381.922399488789	1511
5	4518	381.922399488789	1512
5	4518	381.922399488789	1513
5	4528	382.025377319418	1514
5	4528	382.025377319418	1515
5	4528	382.025377319418	1516
5	4528	382.025377319418	1517
5	4528	382.025377319418	1518
5	4556	383.922399488789	1519
5	4556	383.922399488789	1520
5	4556	383.922399488789	1521
5	4556	383.922399488789	1522
5	4568	385.922399488789	1523
5	4568	385.922399488789	1524
5	4568	385.922399488789	1525
5	4568	385.922399488789	1526
5	4578	386.422399488789	1527
5	4578	386.422399488789	1528
5	4578	386.422399488789	1529
5	4578	386.422399488789	1530
5	4583	386.525377319418	1531
5	4583	386.525377319418	1532
5	4583	386.525377319418	1533
5	4583	386.525377319418	1534
5	4583	386.525377319418	1535
5	4608	387.922399488789	1536
5	4608	387.922399488789	1537
5	4608	387.922399488789	1538
5	4608	387.922399488789	1539
5	4617	389.922399488789	1540
5	4617	389.922399488789	1541
5	4617	389.922399488789	1542
5	4617	389.922399488789	1543
5	4629	390.922399488789	1544
5	4629	390.922399488789	1545
5	4629	390.922399488789	1546
5	4629	390.922399488789	1547
5	4635	391.025377319418	1548
5	4635	391.025377319418	1549
5	4635	391.025377319418	1550
5	4635	391.025377319418	1551
5	4635	391.025377319418	1552
5	4659	391.922399488789	1553
5	4659	391.922399488789	1554
5	4659	391.922399488789	1555
5	4659	391.922399488789	1556
5	4669	393.922399488789	1557
5	4669	393.922399488789	1558
5	4669	393.922399488789	1559
5	4669	393.922399488789	1560
5	4681	395.422399488789	1561
5	4681	395.422399488789	1562
5	4681	395.422399488789	1563
5	4681	395.422399488789	1564
5	4686	395.525377319418	1565
5	4686	395.525377319418	1566
5	4686	395.525377319418	1567
5	4686	395.525377319418	1568
5	4686	395.525377319418	1569
5	4703	395.922399488789	1570
5	4703	395.922399488789	1571
5	4703	395.922399488789	1572
5	4703	395.922399488789	1573
5	4721	397.922399488789	1574
5	4721	397.922399488789	1575
5	4721	397.922399488789	1576
5	4721	397.922399488789	1577
5	4730	399.922399488789	1578
5	4730	399.922399488789	1579
5	4730	399.922399488789	1580
5	4730	399.922399488789	1581
5	4731	399.922399488789	1582
5	4731	399.922399488789	1583
5	4731	399.922399488789	1584
5	4731	399.922399488789	1585
5	4743	400.025377319418	1586
5	4743	400.025377319418	1587
5	4743	400.025377319418	1588
5	4743	400.025377319418	1589
5	4743	400.025377319418	1590
5	4772	401.922399488789	1591
5	4772	401.922399488789	1592
5	4772	401.922399488789	1593
5	4772	401.922399488789	1594
5	4782	403.922399488789	1595
5	4782	403.922399488789	1596
5	4782	403.922399488789	1597
5	4782	403.922399488789	1598
5	4791	404.422399488789	1599
5	4791	404.422399488789	1600
5	4791	404.422399488789	1601
5	4791	404.422399488789	1602
5	4796	404.525377319418	1603
5	4796	404.525377319418	1604
5	4796	404.525377319418	1605
5	4796	404.525377319418	1606
5	4796	404.525377319418	1607
5	4823	405.922399488789	1608
5	4823	405.922399488789	1609
5	4823	405.922399488789	1610
5	4823	405.922399488789	1611
5	4834	407.922399488789	1612
5	4834	407.922399488789	1613
5	4834	407.922399488789	1614
5	4834	407.922399488789	1615
5	4843	408.922399488789	1616
5	4843	408.922399488789	1617
5	4843	408.922399488789	1618
5	4843	408.922399488789	1619
5	4848	409.025377319418	1620
5	4848	409.025377319418	1621
5	4848	409.025377319418	1622
5	4848	409.025377319418	1623
5	4848	409.025377319418	1624
5	4872	409.922399488789	1625
5	4872	409.922399488789	1626
5	4872	409.922399488789	1627
5	4872	409.922399488789	1628
5	4885	411.922399488789	1629
5	4885	411.922399488789	1630
5	4885	411.922399488789	1631
5	4885	411.922399488789	1632
5	4895	413.422399488789	1633
5	4895	413.422399488789	1634
5	4895	413.422399488789	1635
5	4895	413.422399488789	1636
5	4900	413.525377319418	1637
5	4900	413.525377319418	1638
5	4900	413.525377319418	1639
5	4900	413.525377319418	1640
5	4900	413.525377319418	1641
5	4917	413.922399488789	1642
5	4917	413.922399488789	1643
5	4917	413.922399488789	1644
5	4917	413.922399488789	1645
5	4936	415.922399488789	1646
5	4936	415.922399488789	1647
5	4936	415.922399488789	1648
5	4936	415.922399488789	1649
5	4947	417.922399488789	1650
5	4947	417.922399488789	1651
5	4947	417.922399488789	1652
5	4947	417.922399488789	1653
5	4948	417.922399488789	1654
5	4948	417.922399488789	1655
5	4948	417.922399488789	1656
5	4948	417.922399488789	1657
5	4957	418.025377319418	1658
5	4957	418.025377319418	1659
5	4957	418.025377319418	1660
5	4957	418.025377319418	1661
5	4957	418.025377319418	1662
5	4985	419.922399488789	1663
5	4985	419.922399488789	1664
5	4985	419.922399488789	1665
5	4985	419.922399488789	1666
5	4998	421.922399488789	1667
5	4998	421.922399488789	1668
5	4998	421.922399488789	1669
5	4998	421.922399488789	1670
5	5008	422.422399488789	1671
5	5008	422.422399488789	1672
5	5008	422.422399488789	1673
5	5008	422.422399488789	1674
5	5013	422.525377319418	1675
5	5013	422.525377319418	1676
5	5013	422.525377319418	1677
5	5013	422.525377319418	1678
5	5013	422.525377319418	1679
5	5037	423.922399488789	1680
5	5037	423.922399488789	1681
5	5037	423.922399488789	1682
5	5037	423.922399488789	1683
5	5049	425.922399488789	1684
5	5049	425.922399488789	1685
5	5049	425.922399488789	1686
5	5049	425.922399488789	1687
5	5059	426.922399488789	1688
5	5059	426.922399488789	1689
5	5059	426.922399488789	1690
5	5059	426.922399488789	1691
5	5065	427.025377319418	1692
5	5065	427.025377319418	1693
5	5065	427.025377319418	1694
5	5065	427.025377319418	1695
5	5065	427.025377319418	1696
5	5089	427.922399488789	1697
5	5089	427.922399488789	1698
5	5089	427.922399488789	1699
5	5089	427.922399488789	1700
5	5098	429.922399488789	1701
5	5098	429.922399488789	1702
5	5098	429.922399488789	1703
5	5098	429.922399488789	1704
5	5111	431.422399488789	1705
5	5111	431.422399488789	1706
5	5111	431.422399488789	1707
5	5111	431.422399488789	1708
5	5116	431.525377319418	1709
5	5116	431.525377319418	1710
5	5116	431.525377319418	1711
5	5116	431.525377319418	1712
5	5116	431.525377319418	1713
5	5133	431.922399488789	1714
5	5133	431.922399488789	1715
5	5133	431.922399488789	1716
5	5133	431.922399488789	1717
5	5150	433.922399488789	1718
5	5150	433.922399488789	1719
5	5150	433.922399488789	1720
5	5150	433.922399488789	1721
5	5162	435.922399488789	1722
5	5162	435.922399488789	1723
5	5162	435.922399488789	1724
5	5162	435.922399488789	1725
5	5163	435.922399488789	1726
5	5163	435.922399488789	1727
5	5163	435.922399488789	1728
5	5163	435.922399488789	1729
5	5173	436.025377319418	1730
5	5173	436.025377319418	1731
5	5173	436.025377319418	1732
5	5173	436.025377319418	1733
5	5173	436.025377319418	1734
5	5202	437.922399488789	1735
5	5202	437.922399488789	1736
5	5202	437.922399488789	1737
5	5202	437.922399488789	1738
5	5211	439.922399488789	1739
5	5211	439.922399488789	1740
5	5211	439.922399488789	1741
5	5211	439.922399488789	1742
5	5223	440.422399488789	1743
5	5223	440.422399488789	1744
5	5223	440.422399488789	1745
5	5223	440.422399488789	1746
5	5228	440.525377319418	1747
5	5228	440.525377319418	1748
5	5228	440.525377319418	1749
5	5228	440.525377319418	1750
5	5228	440.525377319418	1751
5	5253	441.922399488789	1752
5	5253	441.922399488789	1753
5	5253	441.922399488789	1754
5	5253	441.922399488789	1755
5	5263	443.922399488789	1756
5	5263	443.922399488789	1757
5	5263	443.922399488789	1758
5	5263	443.922399488789	1759
5	5272	444.922399488789	1760
5	5272	444.922399488789	1761
5	5272	444.922399488789	1762
5	5272	444.922399488789	1763
5	5280	445.025377319418	1764
5	5280	445.025377319418	1765
5	5280	445.025377319418	1766
5	5280	445.025377319418	1767
5	5280	445.025377319418	1768
5	5304	445.922399488789	1769
5	5304	445.922399488789	1770
5	5304	445.922399488789	1771
5	5304	445.922399488789	1772
5	5315	447.922399488789	1773
5	5315	447.922399488789	1774
5	5315	447.922399488789	1775
5	5315	447.922399488789	1776
5	5324	449.422399488789	1777
5	5324	449.422399488789	1778
5	5324	449.422399488789	1779
5	5324	449.422399488789	1780
5	5329	449.525377319418	1781
5	5329	449.525377319418	1782
5	5329	449.525377319418	1783
5	5329	449.525377319418	1784
5	5329	449.525377319418	1785
5	5346	449.922399488789	1786
5	5346	449.922399488789	1787
5	5346	449.922399488789	1788
5	5346	449.922399488789	1789
5	5375	454.827149670799	1790
5	5383	454.995081704445	1791
5	5408	456.995081704445	1792
5	5436	458.995081704445	1793
5	5446	459.495081704445	1794
5	5477	460.995081704445	1795
5	5488	462.995081704445	1796
5	5497	463.995081704445	1797
5	5527	464.995081704445	1798
5	5539	466.995081704445	1799
5	5549	468.495081704445	1800
5	5572	468.995081704445	1801
5	5590	470.995081704445	1802
5	5605	472.995081704445	1803
5	5606	472.995081704445	1804
5	5640	474.995081704445	1805
5	5652	476.995081704445	1806
5	5662	477.495081704445	1807
5	5691	478.995081704445	1808
5	5703	480.995081704445	1809
5	5713	481.995081704445	1810
5	5743	482.995081704445	1811
5	5753	484.995081704445	1812
5	5765	486.495081704445	1813
5	5788	486.995081704445	1814
5	5804	488.995081704445	1815
5	5820	490.995081704445	1816
5	5821	490.995081704445	1817
5	5856	492.995081704445	1818
5	5866	494.995081704445	1819
5	5877	495.495081704445	1820
5	5907	496.995081704445	1821
5	5917	498.995081704445	1822
5	5927	499.995081704445	1823
5	5958	500.995081704445	1824
5	5969	502.995081704445	1825
5	5979	504.495081704445	1826
5	6002	504.995081704445	1827
5	6020	506.995081704445	1828
5	6034	508.995081704445	1829
5	6035	508.995081704445	1830
5	6071	510.995081704445	1831
5	6081	512.995081704445	1832
5	6090	513.495081704445	1833
5	6120	514.995081704445	1834
5	6133	516.995081704445	1835
5	6142	517.995081704445	1836
5	6171	518.995081704445	1837
5	6184	520.995081704445	1838
5	6195	522.495081704445	1839
5	6216	522.995081704445	1840
5	6234	524.995081704445	1841
5	6250	526.995081704445	1842
5	6251	526.995081704445	1843
5	6285	528.995081704445	1844
5	6297	530.995081704445	1845
5	6307	531.495081704445	1846
5	6336	532.995081704445	1847
5	6347	534.995081704445	1848
5	6358	535.995081704445	1849
5	6388	536.995081704445	1850
5	6398	538.995081704445	1851
5	6410	540.495081704445	1852
5	6433	540.995081704445	1853
5	6449	542.995081704445	1854
5	6464	544.995081704445	1855
5	6465	544.995081704445	1856
5	6501	546.995081704445	1857
5	6511	548.995081704445	1858
5	6521	549.495081704445	1859
5	6552	550.995081704445	1860
5	6562	552.995081704445	1861
5	6572	553.995081704445	1862
5	6602	554.995081704445	1863
5	6614	556.995081704445	1864
5	6624	558.495081704445	1865
5	6647	558.995081704445	1866
5	6665	560.995081704445	1867
5	6679	562.995081704445	1868
5	6680	562.995081704445	1869
5	6715	564.995081704445	1870
5	6727	566.995081704445	1871
5	6736	567.495081704445	1872
5	6766	568.995081704445	1873
5	6778	570.995081704445	1874
5	6788	571.995081704445	1875
5	6817	572.995081704445	1876
5	6828	574.995081704445	1877
5	6840	576.495081704445	1878
5	6863	576.995081704445	1879
5	6879	578.995081704445	1880
5	6895	580.995081704445	1881
5	6896	580.995081704445	1882
5	6930	582.995081704445	1883
5	6941	584.995081704445	1884
5	6952	585.495081704445	1885
5	6982	586.995081704445	1886
5	6992	588.995081704445	1887
5	7002	589.995081704445	1888
5	7033	590.995081704445	1889
5	7043	592.995081704445	1890
5	7054	594.495081704445	1891
5	7077	594.995081704445	1892
5	7095	596.995081704445	1893
5	7109	598.995081704445	1894
5	7110	598.995081704445	1895
5	7146	600.995081704445	1896
5	7156	602.995081704445	1897
5	7166	603.495081704445	1898
5	7196	604.995081704445	1899
5	7208	606.995081704445	1900
5	7217	607.995081704445	1901
5	7247	608.995081704445	1902
5	7259	610.995081704445	1903
5	7269	612.495081704445	1904
5	7292	612.995081704445	1905
5	7309	614.995081704445	1906
5	7325	616.995081704445	1907
5	7326	616.995081704445	1908
5	7360	618.995081704445	1909
5	7372	620.995081704445	1910
5	7382	621.495081704445	1911
5	7411	622.995081704445	1912
5	7422	624.995081704445	1913
5	7433	625.995081704445	1914
5	7463	626.995081704445	1915
5	7473	628.995081704445	1916
5	7485	630.495081704445	1917
5	7508	630.995081704445	1918
5	7524	632.995081704445	1919
5	7539	634.995081704445	1920
5	7540	634.995081704445	1921
5	7576	636.995081704445	1922
5	7586	638.995081704445	1923
5	7596	639.495081704445	1924
5	7627	640.995081704445	1925
5	7637	642.995081704445	1926
5	7647	643.995081704445	1927
5	7677	644.995081704445	1928
5	7689	646.995081704445	1929
5	7699	648.495081704445	1930
5	7722	648.995081704445	1931
5	7740	650.995081704445	1932
5	7754	652.995081704445	1933
5	7755	652.995081704445	1934
5	7790	654.995081704445	1935
5	7802	656.995081704445	1936
5	7811	657.495081704445	1937
5	7841	658.995081704445	1938
5	7853	660.995081704445	1939
5	7863	661.995081704445	1940
5	7892	662.995081704445	1941
5	7903	664.995081704445	1942
5	7915	666.495081704445	1943
5	7938	666.995081704445	1944
5	7954	668.995081704445	1945
5	7970	670.995081704445	1946
5	7971	670.995081704445	1947
5	8005	672.995081704445	1948
5	8016	674.995081704445	1949
5	8027	675.495081704445	1950
5	8057	676.995081704445	1951
5	8067	678.995081704445	1952
5	8077	679.995081704445	1953
5	8108	680.995081704445	1954
5	8118	682.995081704445	1955
5	8129	684.495081704445	1956
5	8152	684.995081704445	1957
5	8170	686.995081704445	1958
5	8184	688.995081704445	1959
5	8185	688.995081704445	1960
5	8221	690.995081704445	1961
5	8231	692.995081704445	1962
5	8241	693.495081704445	1963
5	8271	694.995081704445	1964
5	8283	696.995081704445	1965
5	8292	697.995081704445	1966
5	8322	698.995081704445	1967
5	8334	700.995081704445	1968
5	8344	702.495081704445	1969
5	8367	702.995081704445	1970
5	8384	704.995081704445	1971
5	8400	706.995081704445	1972
5	8401	706.995081704445	1973
5	8435	708.995081704445	1974
5	8447	710.995081704445	1975
5	8457	711.495081704445	1976
5	8486	712.995081704445	1977
5	8497	714.995081704445	1978
5	8508	715.995081704445	1979
5	8538	716.995081704445	1980
5	8548	718.995081704445	1981
5	8560	720.495081704445	1982
5	8583	720.995081704445	1983
5	8599	722.995081704445	1984
5	8614	724.995081704445	1985
5	8615	724.995081704445	1986
5	8651	726.995081704445	1987
5	8661	728.995081704445	1988
5	8671	729.495081704445	1989
5	8702	730.995081704445	1990
5	8712	732.995081704445	1991
5	8722	733.995081704445	1992
5	8752	734.995081704445	1993
5	8764	736.995081704445	1994
5	8774	738.495081704445	1995
5	8797	738.995081704445	1996
5	8815	740.995081704445	1997
5	8829	742.995081704445	1998
5	8830	742.995081704445	1999
5	8865	744.995081704445	2000
5	8877	746.995081704445	2001
5	8886	747.495081704445	2002
5	8916	748.995081704445	2003
5	8928	750.995081704445	2004
5	8938	751.995081704445	2005
5	8967	752.995081704445	2006
5	8978	754.995081704445	2007
5	8990	756.495081704445	2008
5	9013	756.995081704445	2009
5	9029	758.995081704445	2010
5	9045	760.995081704445	2011
5	9046	760.995081704445	2012
5	9080	762.995081704445	2013
5	9091	764.995081704445	2014
5	9102	765.495081704445	2015
5	9132	766.995081704445	2016
5	9142	768.995081704445	2017
5	9152	769.995081704445	2018
5	9183	770.995081704445	2019
5	9193	772.995081704445	2020
5	9204	774.495081704445	2021
5	9227	774.995081704445	2022
5	9245	776.995081704445	2023
5	9257	778.995081704445	2024
5	9258	778.995081704445	2025
5	9295	780.995081704445	2026
5	9307	782.995081704445	2027
5	9316	783.495081704445	2028
5	9346	784.995081704445	2029
5	9358	786.995081704445	2030
5	9368	787.995081704445	2031
5	9397	788.995081704445	2032
5	9409	790.995081704445	2033
5	9420	792.495081704445	2034
5	9443	792.995081704445	2035
5	9459	794.995081704445	2036
5	9475	796.995081704445	2037
5	9476	796.995081704445	2038
5	9510	798.995081704445	2039
5	9522	802.814503362605	2040
5	9522	802.814503362605	2041
5	9522	802.814503362605	2042
5	9522	802.814503362605	2043
5	9527	802.917481193234	2044
5	9527	802.917481193234	2045
5	9527	802.917481193234	2046
5	9527	802.917481193234	2047
5	9554	804.917481193234	2048
5	9554	804.917481193234	2049
5	9554	804.917481193234	2050
5	9554	804.917481193234	2051
5	9583	806.917481193234	2052
5	9583	806.917481193234	2053
5	9583	806.917481193234	2054
5	9583	806.917481193234	2055
5	9593	807.417481193234	2056
5	9593	807.417481193234	2057
5	9593	807.417481193234	2058
5	9593	807.417481193234	2059
5	9598	807.520459023863	2060
5	9598	807.520459023863	2061
5	9598	807.520459023863	2062
5	9598	807.520459023863	2063
5	9618	808.917481193234	2064
5	9618	808.917481193234	2065
5	9618	808.917481193234	2066
5	9618	808.917481193234	2067
5	9630	810.917481193234	2068
5	9630	810.917481193234	2069
5	9630	810.917481193234	2070
5	9630	810.917481193234	2071
5	9640	811.917481193234	2072
5	9640	811.917481193234	2073
5	9640	811.917481193234	2074
5	9640	811.917481193234	2075
5	9647	812.020459023863	2076
5	9647	812.020459023863	2077
5	9647	812.020459023863	2078
5	9647	812.020459023863	2079
5	9666	812.917481193234	2080
5	9666	812.917481193234	2081
5	9666	812.917481193234	2082
5	9666	812.917481193234	2083
5	9680	814.917481193234	2084
5	9680	814.917481193234	2085
5	9680	814.917481193234	2086
5	9680	814.917481193234	2087
5	9692	816.417481193234	2088
5	9692	816.417481193234	2089
5	9692	816.417481193234	2090
5	9692	816.417481193234	2091
5	9697	816.520459023863	2092
5	9697	816.520459023863	2093
5	9697	816.520459023863	2094
5	9697	816.520459023863	2095
5	9697	816.520459023863	2096
5	9713	816.917481193234	2097
5	9713	816.917481193234	2098
5	9713	816.917481193234	2099
5	9713	816.917481193234	2100
5	9731	818.917481193234	2101
5	9731	818.917481193234	2102
5	9731	818.917481193234	2103
5	9731	818.917481193234	2104
5	9742	820.917481193234	2105
5	9742	820.917481193234	2106
5	9742	820.917481193234	2107
5	9742	820.917481193234	2108
5	9743	820.917481193234	2109
5	9743	820.917481193234	2110
5	9743	820.917481193234	2111
5	9743	820.917481193234	2112
5	9753	821.020459023863	2113
5	9753	821.020459023863	2114
5	9753	821.020459023863	2115
5	9753	821.020459023863	2116
5	9753	821.020459023863	2117
5	9782	822.917481193234	2118
5	9782	822.917481193234	2119
5	9782	822.917481193234	2120
5	9782	822.917481193234	2121
5	9793	824.917481193234	2122
5	9793	824.917481193234	2123
5	9793	824.917481193234	2124
5	9793	824.917481193234	2125
5	9803	825.417481193234	2126
5	9803	825.417481193234	2127
5	9803	825.417481193234	2128
5	9803	825.417481193234	2129
5	9808	825.520459023863	2130
5	9808	825.520459023863	2131
5	9808	825.520459023863	2132
5	9808	825.520459023863	2133
5	9808	825.520459023863	2134
5	9833	826.917481193234	2135
5	9833	826.917481193234	2136
5	9833	826.917481193234	2137
5	9833	826.917481193234	2138
5	9843	828.917481193234	2139
5	9843	828.917481193234	2140
5	9843	828.917481193234	2141
5	9843	828.917481193234	2142
5	9854	829.917481193234	2143
5	9854	829.917481193234	2144
5	9854	829.917481193234	2145
5	9854	829.917481193234	2146
5	9860	830.020459023863	2147
5	9860	830.020459023863	2148
5	9860	830.020459023863	2149
5	9860	830.020459023863	2150
5	9860	830.020459023863	2151
5	9884	830.917481193234	2152
5	9884	830.917481193234	2153
5	9884	830.917481193234	2154
5	9884	830.917481193234	2155
5	9895	832.917481193234	2156
5	9895	832.917481193234	2157
5	9895	832.917481193234	2158
5	9895	832.917481193234	2159
5	9906	834.417481193234	2160
5	9906	834.417481193234	2161
5	9906	834.417481193234	2162
5	9906	834.417481193234	2163
5	9911	834.520459023863	2164
5	9911	834.520459023863	2165
5	9911	834.520459023863	2166
5	9911	834.520459023863	2167
5	9911	834.520459023863	2168
5	9928	834.917481193234	2169
5	9928	834.917481193234	2170
5	9928	834.917481193234	2171
5	9928	834.917481193234	2172
5	9946	836.917481193234	2173
5	9946	836.917481193234	2174
5	9946	836.917481193234	2175
5	9946	836.917481193234	2176
5	9956	838.917481193234	2177
5	9956	838.917481193234	2178
5	9956	838.917481193234	2179
5	9956	838.917481193234	2180
5	9957	838.917481193234	2181
5	9957	838.917481193234	2182
5	9957	838.917481193234	2183
5	9957	838.917481193234	2184
5	9968	839.020459023863	2185
5	9968	839.020459023863	2186
5	9968	839.020459023863	2187
5	9968	839.020459023863	2188
5	9968	839.020459023863	2189
5	9997	840.917481193234	2190
5	9997	840.917481193234	2191
5	9997	840.917481193234	2192
5	9997	840.917481193234	2193
5	10008	842.917481193234	2194
5	10008	842.917481193234	2195
5	10008	842.917481193234	2196
5	10008	842.917481193234	2197
5	10017	843.417481193234	2198
5	10017	843.417481193234	2199
5	10017	843.417481193234	2200
5	10017	843.417481193234	2201
5	10022	843.520459023863	2202
5	10022	843.520459023863	2203
5	10022	843.520459023863	2204
5	10022	843.520459023863	2205
5	10022	843.520459023863	2206
5	10048	844.917481193234	2207
5	10048	844.917481193234	2208
5	10048	844.917481193234	2209
5	10048	844.917481193234	2210
5	10059	846.917481193234	2211
5	10059	846.917481193234	2212
5	10059	846.917481193234	2213
5	10059	846.917481193234	2214
5	10069	847.917481193234	2215
5	10069	847.917481193234	2216
5	10069	847.917481193234	2217
5	10069	847.917481193234	2218
5	10074	848.020459023863	2219
5	10074	848.020459023863	2220
5	10074	848.020459023863	2221
5	10074	848.020459023863	2222
5	10074	848.020459023863	2223
5	10098	848.917481193234	2224
5	10098	848.917481193234	2225
5	10098	848.917481193234	2226
5	10098	848.917481193234	2227
5	10110	850.917481193234	2228
5	10110	850.917481193234	2229
5	10110	850.917481193234	2230
5	10110	850.917481193234	2231
5	10121	852.417481193234	2232
5	10121	852.417481193234	2233
5	10121	852.417481193234	2234
5	10121	852.417481193234	2235
5	10126	852.520459023863	2236
5	10126	852.520459023863	2237
5	10126	852.520459023863	2238
5	10126	852.520459023863	2239
5	10126	852.520459023863	2240
5	10143	852.917481193234	2241
5	10143	852.917481193234	2242
5	10143	852.917481193234	2243
5	10143	852.917481193234	2244
5	10161	854.917481193234	2245
5	10161	854.917481193234	2246
5	10161	854.917481193234	2247
5	10161	854.917481193234	2248
5	10172	856.917481193234	2249
5	10172	856.917481193234	2250
5	10172	856.917481193234	2251
5	10172	856.917481193234	2252
5	10173	856.917481193234	2253
5	10173	856.917481193234	2254
5	10173	856.917481193234	2255
5	10173	856.917481193234	2256
5	10183	857.020459023863	2257
5	10183	857.020459023863	2258
5	10183	857.020459023863	2259
5	10183	857.020459023863	2260
5	10183	857.020459023863	2261
5	10211	858.917481193234	2262
5	10211	858.917481193234	2263
5	10211	858.917481193234	2264
5	10211	858.917481193234	2265
5	10223	860.917481193234	2266
5	10223	860.917481193234	2267
5	10223	860.917481193234	2268
5	10223	860.917481193234	2269
5	10233	861.417481193234	2270
5	10233	861.417481193234	2271
5	10233	861.417481193234	2272
5	10233	861.417481193234	2273
5	10238	861.520459023863	2274
5	10238	861.520459023863	2275
5	10238	861.520459023863	2276
5	10238	861.520459023863	2277
5	10238	861.520459023863	2278
5	10263	862.917481193234	2279
5	10263	862.917481193234	2280
5	10263	862.917481193234	2281
5	10263	862.917481193234	2282
5	10274	864.917481193234	2283
5	10274	864.917481193234	2284
5	10274	864.917481193234	2285
5	10274	864.917481193234	2286
5	10284	865.917481193234	2287
5	10284	865.917481193234	2288
5	10284	865.917481193234	2289
5	10284	865.917481193234	2290
5	10290	866.020459023863	2291
5	10290	866.020459023863	2292
5	10290	866.020459023863	2293
5	10290	866.020459023863	2294
5	10290	866.020459023863	2295
5	10314	866.917481193234	2296
5	10314	866.917481193234	2297
5	10314	866.917481193234	2298
5	10314	866.917481193234	2299
5	10324	868.917481193234	2300
5	10324	868.917481193234	2301
5	10324	868.917481193234	2302
5	10324	868.917481193234	2303
5	10357	873.81942165816	2304
5	10357	873.81942165816	2305
5	10357	873.81942165816	2306
5	10357	873.81942165816	2307
5	10358	873.822231375244	2308
5	10377	874.012517447247	2309
5	10408	876.012517447247	2310
5	10418	878.012517447247	2311
5	10430	878.512517447247	2312
5	10460	880.012517447247	2313
5	10476	882.012517447247	2314
5	10485	883.012517447247	2315
5	10515	884.012517447247	2316
5	10527	886.012517447247	2317
5	10537	887.512517447247	2318
5	10560	888.012517447247	2319
5	10578	890.012517447247	2320
5	10593	892.012517447247	2321
5	10594	892.012517447247	2322
5	10628	894.012517447247	2323
5	10640	896.012517447247	2324
5	10649	896.512517447247	2325
5	10679	898.012517447247	2326
5	10691	900.012517447247	2327
5	10701	901.012517447247	2328
5	10731	902.012517447247	2329
5	10741	904.012517447247	2330
5	10752	905.512517447247	2331
5	10776	906.012517447247	2332
5	10792	908.012517447247	2333
5	10808	910.012517447247	2334
5	10809	910.012517447247	2335
5	10844	912.012517447247	2336
5	10854	914.012517447247	2337
5	10863	914.512517447247	2338
5	10895	916.012517447247	2339
5	10905	918.012517447247	2340
5	10915	919.012517447247	2341
5	10946	920.012517447247	2342
5	10957	922.012517447247	2343
5	10966	923.512517447247	2344
5	10990	924.012517447247	2345
5	11008	926.012517447247	2346
5	11022	928.012517447247	2347
5	11023	928.012517447247	2348
5	11059	930.012517447247	2349
5	11070	932.012517447247	2350
5	11079	932.512517447247	2351
5	11109	934.012517447247	2352
5	11121	936.012517447247	2353
5	11131	937.012517447247	2354
5	11160	938.012517447247	2355
5	11172	940.012517447247	2356
5	11182	941.512517447247	2357
5	11206	942.012517447247	2358
5	11222	944.012517447247	2359
5	11238	946.012517447247	2360
5	11239	946.012517447247	2361
5	11273	948.012517447247	2362
5	11285	950.012517447247	2363
5	11293	950.512517447247	2364
5	11325	952.012517447247	2365
5	11336	954.012517447247	2366
5	11346	955.012517447247	2367
5	11376	956.012517447247	2368
5	11386	958.012517447247	2369
5	11396	959.512517447247	2370
5	11420	960.012517447247	2371
5	11438	962.012517447247	2372
5	11452	964.012517447247	2373
5	11453	964.012517447247	2374
5	11489	966.012517447247	2375
5	11499	968.012517447247	2376
5	11508	968.512517447247	2377
5	11539	970.012517447247	2378
5	11551	972.012517447247	2379
5	11560	973.012517447247	2380
5	11590	974.012517447247	2381
5	11602	976.012517447247	2382
5	11612	977.512517447247	2383
5	11635	978.012517447247	2384
5	11652	980.012517447247	2385
5	11668	982.012517447247	2386
5	11669	982.012517447247	2387
5	11703	984.012517447247	2388
5	11715	986.012517447247	2389
5	11723	986.512517447247	2390
5	11754	988.012517447247	2391
5	11766	990.012517447247	2392
5	11776	991.012517447247	2393
5	11806	992.012517447247	2394
5	11816	994.012517447247	2395
5	11827	995.512517447247	2396
5	11851	996.012517447247	2397
5	11867	998.012517447247	2398
5	11883	1000.012517447247	2399
5	11884	1000.012517447247	2400
5	11919	1002.012517447247	2401
5	11929	1004.012517447247	2402
5	11938	1004.512517447247	2403
5	11970	1006.012517447247	2404
5	11980	1008.012517447247	2405
5	11990	1009.012517447247	2406
5	12021	1010.012517447247	2407
5	12032	1012.012517447247	2408
5	12041	1013.512517447247	2409
5	12065	1014.012517447247	2410
5	12083	1016.012517447247	2411
5	12097	1018.012517447247	2412
5	12098	1018.012517447247	2413
5	12134	1020.012517447247	2414
5	12145	1022.012517447247	2415
5	12154	1022.512517447247	2416
5	12184	1024.012517447247	2417
5	12196	1026.012517447247	2418
5	12206	1027.012517447247	2419
5	12235	1028.012517447247	2420
5	12247	1030.012517447247	2421
5	12257	1031.512517447247	2422
5	12281	1032.012517447247	2423
5	12297	1034.012517447247	2424
5	12313	1036.012517447247	2425
5	12314	1036.012517447247	2426
5	12348	1038.012517447247	2427
5	12360	1040.012517447247	2428
5	12369	1040.512517447247	2429
5	12400	1042.012517447247	2430
5	12410	1044.012517447247	2431
5	12421	1045.012517447247	2432
5	12451	1046.012517447247	2433
5	12461	1048.012517447247	2434
5	12471	1049.512517447247	2435
5	12496	1050.012517447247	2436
5	12513	1052.012517447247	2437
5	12527	1054.012517447247	2438
5	12528	1054.012517447247	2439
5	12564	1056.012517447247	2440
5	12574	1058.012517447247	2441
5	12583	1058.512517447247	2442
5	12615	1060.012517447247	2443
5	12626	1062.012517447247	2444
5	12635	1063.012517447247	2445
5	12665	1064.012517447247	2446
5	12677	1066.012517447247	2447
5	12687	1067.512517447247	2448
5	12710	1068.012517447247	2449
5	12728	1070.012517447247	2450
5	12743	1072.012517447247	2451
5	12744	1072.012517447247	2452
5	12778	1074.012517447247	2453
5	12790	1076.012517447247	2454
5	12799	1076.512517447247	2455
5	12829	1078.012517447247	2456
5	12841	1080.012517447247	2457
5	12851	1081.012517447247	2458
5	12881	1082.012517447247	2459
5	12891	1084.012517447247	2460
5	12902	1085.512517447247	2461
5	12926	1086.012517447247	2462
5	12942	1088.012517447247	2463
5	12958	1090.012517447247	2464
5	12959	1090.012517447247	2465
5	12994	1092.012517447247	2466
5	13004	1094.012517447247	2467
5	13013	1094.512517447247	2468
5	13045	1096.012517447247	2469
5	13055	1098.012517447247	2470
5	13065	1099.012517447247	2471
5	13096	1100.012517447247	2472
5	13107	1102.012517447247	2473
5	13116	1103.512517447247	2474
5	13140	1104.012517447247	2475
5	13158	1106.012517447247	2476
5	13172	1108.012517447247	2477
5	13173	1108.012517447247	2478
5	13209	1110.012517447247	2479
5	13220	1112.012517447247	2480
5	13229	1112.512517447247	2481
5	13259	1114.012517447247	2482
5	13272	1116.012517447247	2483
5	13282	1117.012517447247	2484
5	13311	1118.012517447247	2485
5	13322	1120.012517447247	2486
5	13333	1121.512517447247	2487
5	13357	1122.012517447247	2488
5	13373	1124.012517447247	2489
5	13389	1126.012517447247	2490
5	13390	1126.012517447247	2491
5	13424	1128.012517447247	2492
5	13435	1130.012517447247	2493
5	13444	1130.512517447247	2494
5	13476	1132.012517447247	2495
5	13486	1134.012517447247	2496
5	13496	1135.012517447247	2497
5	13527	1136.012517447247	2498
5	13537	1138.012517447247	2499
5	13547	1139.512517447247	2500
5	13571	1140.012517447247	2501
5	13589	1142.012517447247	2502
5	13603	1144.012517447247	2503
5	13604	1144.012517447247	2504
5	13640	1146.012517447247	2505
5	13650	1148.012517447247	2506
5	13659	1148.512517447247	2507
5	13690	1150.012517447247	2508
5	13702	1152.012517447247	2509
5	13711	1153.012517447247	2510
5	13741	1154.012517447247	2511
5	13753	1156.012517447247	2512
5	13763	1157.512517447247	2513
5	13786	1158.012517447247	2514
5	13803	1160.012517447247	2515
5	13819	1162.012517447247	2516
5	13820	1162.012517447247	2517
5	13854	1164.012517447247	2518
5	13866	1166.012517447247	2519
5	13875	1166.512517447247	2520
5	13905	1168.012517447247	2521
5	13916	1170.012517447247	2522
5	13927	1171.012517447247	2523
5	13957	1172.012517447247	2524
5	13967	1174.012517447247	2525
5	13977	1175.512517447247	2526
5	14002	1176.012517447247	2527
5	14018	1178.012517447247	2528
5	14033	1180.012517447247	2529
5	14034	1180.012517447247	2530
5	14070	1182.012517447247	2531
5	14080	1184.012517447247	2532
5	14089	1184.512517447247	2533
5	14121	1186.012517447247	2534
5	14131	1188.012517447247	2535
5	14141	1189.012517447247	2536
5	14171	1190.012517447247	2537
5	14183	1192.012517447247	2538
5	14192	1193.512517447247	2539
5	14216	1194.012517447247	2540
5	14234	1196.012517447247	2541
5	14248	1198.012517447247	2542
5	14249	1198.012517447247	2543
5	14284	1200.012517447247	2544
5	14296	1202.012517447247	2545
5	14305	1202.512517447247	2546
5	14335	1204.012517447247	2547
5	14347	1206.012517447247	2548
5	14357	1207.012517447247	2549
5	14386	1208.012517447247	2550
5	14397	1210.012517447247	2551
5	14408	1211.512517447247	2552
5	14432	1212.012517447247	2553
[...]
34	8435	708.995081704445	184
34	8447	710.995081704445	185
34	8457	711.495081704445	186
34	8486	712.995081704445	187
34	8497	714.995081704445	188
34	8508	715.995081704445	189
34	8538	716.995081704445	190
34	8548	718.995081704445	191
34	8560	720.495081704445	192
34	8583	720.995081704445	193
34	8599	722.995081704445	194
34	8614	724.995081704445	195
34	8615	724.995081704445	196
34	8651	726.995081704445	197
34	8661	728.995081704445	198
34	8671	729.495081704445	199
34	8702	730.995081704445	200
34	8712	732.995081704445	201
34	8722	733.995081704445	202
34	8752	734.995081704445	203
34	8764	736.995081704445	204
34	8774	738.495081704445	205
34	8797	738.995081704445	206
34	8815	740.995081704445	207
34	8829	742.995081704445	208
34	8830	742.995081704445	209
34	8865	744.995081704445	210
34	8877	746.995081704445	211
34	8886	747.495081704445	212
34	8916	748.995081704445	213
34	8928	750.995081704445	214
34	8938	751.995081704445	215
34	8967	752.995081704445	216
34	8978	754.995081704445	217
34	8990	756.495081704445	218
34	9013	756.995081704445	219
34	9029	758.995081704445	220
34	9045	760.995081704445	221
34	9046	760.995081704445	222
34	9080	762.995081704445	223
34	9091	764.995081704445	224
34	9102	765.495081704445	225
34	9132	766.995081704445	226
34	9142	768.995081704445	227
34	9152	769.995081704445	228
34	9183	770.995081704445	229
34	9193	772.995081704445	230
34	9204	774.495081704445	231
34	9227	774.995081704445	232
34	9245	776.995081704445	233
34	9257	778.995081704445	234
34	9258	778.995081704445	235
34	9295	780.995081704445	236
34	9307	782.995081704445	237
34	9316	783.495081704445	238
34	9346	784.995081704445	239
34	9358	786.995081704445	240
34	9368	787.995081704445	241
34	9397	788.995081704445	242
34	9409	790.995081704445	243
34	9420	792.495081704445	244
34	9443	792.995081704445	245
34	9459	794.995081704445	246
34	9475	796.995081704445	247
34	9476	796.995081704445	248
34	9510	798.995081704445	249
34	10377	874.012517447247	250
34	10408	876.012517447247	251
34	10418	878.012517447247	252
34	10430	878.512517447247	253
34	10460	880.012517447247	254
34	10476	882.012517447247	255
34	10485	883.012517447247	256
34	10515	884.012517447247	257
34	10527	886.012517447247	258
34	10537	887.512517447247	259
34	10560	888.012517447247	260
34	10578	890.012517447247	261
34	10593	892.012517447247	262
34	10594	892.012517447247	263
34	10628	894.012517447247	264
34	10640	896.012517447247	265
34	10649	896.512517447247	266
34	10679	898.012517447247	267
34	10691	900.012517447247	268
34	10701	901.012517447247	269
34	10731	902.012517447247	270
34	10741	904.012517447247	271
34	10752	905.512517447247	272
34	10776	906.012517447247	273
34	10792	908.012517447247	274
34	10808	910.012517447247	275
34	10809	910.012517447247	276
34	10844	912.012517447247	277
34	10854	914.012517447247	278
34	10863	914.512517447247	279
34	10895	916.012517447247	280
34	10905	918.012517447247	281
34	10915	919.012517447247	282
34	10946	920.012517447247	283
34	10957	922.012517447247	284
34	10966	923.512517447247	285
34	10990	924.012517447247	286
34	11008	926.012517447247	287
34	11022	928.012517447247	288
34	11023	928.012517447247	289
34	11059	930.012517447247	290
34	11070	932.012517447247	291
34	11079	932.512517447247	292
34	11109	934.012517447247	293
34	11121	936.012517447247	294
34	11131	937.012517447247	295
34	11160	938.012517447247	296
34	11172	940.012517447247	297
34	11182	941.512517447247	298
34	11206	942.012517447247	299
34	11222	944.012517447247	300
34	11238	946.012517447247	301
34	11239	946.012517447247	302
34	11273	948.012517447247	303
34	11285	950.012517447247	304
34	11293	950.512517447247	305
34	11325	952.012517447247	306
34	11336	954.012517447247	307
34	11346	955.012517447247	308
34	11376	956.012517447247	309
34	11386	958.012517447247	310
34	11396	959.512517447247	311
34	11420	960.012517447247	312
34	11438	962.012517447247	313
34	11452	964.012517447247	314
34	11453	964.012517447247	315
34	11489	966.012517447247	316
34	11499	968.012517447247	317
34	11508	968.512517447247	318
34	11539	970.012517447247	319
34	11551	972.012517447247	320
34	11560	973.012517447247	321
34	11590	974.012517447247	322
34	11602	976.012517447247	323
34	11612	977.512517447247	324
34	11635	978.012517447247	325
34	11652	980.012517447247	326
34	11668	982.012517447247	327
34	11669	982.012517447247	328
34	11703	984.012517447247	329
34	11715	986.012517447247	330
34	11723	986.512517447247	331
34	11754	988.012517447247	332
34	11766	990.012517447247	333
34	11776	991.012517447247	334
34	11806	992.012517447247	335
34	11816	994.012517447247	336
34	11827	995.512517447247	337
34	11851	996.012517447247	338
34	11867	998.012517447247	339
34	11883	1000.012517447247	340
34	11884	1000.012517447247	341
34	11919	1002.012517447247	342
34	11929	1004.012517447247	343
34	11938	1004.512517447247	344
34	11970	1006.012517447247	345
34	11980	1008.012517447247	346
34	11990	1009.012517447247	347
34	12021	1010.012517447247	348
34	12032	1012.012517447247	349
34	12041	1013.512517447247	350
34	12065	1014.012517447247	351
34	12083	1016.012517447247	352
34	12097	1018.012517447247	353
34	12098	1018.012517447247	354
34	12134	1020.012517447247	355
34	12145	1022.012517447247	356
34	12154	1022.512517447247	357
34	12184	1024.012517447247	358
34	12196	1026.012517447247	359
34	12206	1027.012517447247	360
34	12235	1028.012517447247	361
34	12247	1030.012517447247	362
34	12257	1031.512517447247	363
34	12281	1032.012517447247	364
34	12297	1034.012517447247	365
34	12313	1036.012517447247	366
34	12314	1036.012517447247	367
34	12348	1038.012517447247	368
34	12360	1040.012517447247	369
34	12369	1040.512517447247	370
34	12400	1042.012517447247	371
34	12410	1044.012517447247	372
34	12421	1045.012517447247	373
34	12451	1046.012517447247	374
34	12461	1048.012517447247	375
34	12471	1049.512517447247	376
34	12496	1050.012517447247	377
34	12513	1052.012517447247	378
34	12527	1054.012517447247	379
34	12528	1054.012517447247	380
34	12564	1056.012517447247	381
34	12574	1058.012517447247	382
34	12583	1058.512517447247	383
34	12615	1060.012517447247	384
34	12626	1062.012517447247	385
34	12635	1063.012517447247	386
34	12665	1064.012517447247	387
34	12677	1066.012517447247	388
34	12687	1067.512517447247	389
34	12710	1068.012517447247	390
34	12728	1070.012517447247	391
34	12743	1072.012517447247	392
34	12744	1072.012517447247	393
34	12778	1074.012517447247	394
34	12790	1076.012517447247	395
34	12799	1076.512517447247	396
34	12829	1078.012517447247	397
34	12841	1080.012517447247	398
34	12851	1081.012517447247	399
34	12881	1082.012517447247	400
34	12891	1084.012517447247	401
34	12902	1085.512517447247	402
34	12926	1086.012517447247	403
34	12942	1088.012517447247	404
34	12958	1090.012517447247	405
34	12959	1090.012517447247	406
34	12994	1092.012517447247	407
34	13004	1094.012517447247	408
34	13013	1094.512517447247	409
34	13045	1096.012517447247	410
34	13055	1098.012517447247	411
34	13065	1099.012517447247	412
34	13096	1100.012517447247	413
34	13107	1102.012517447247	414
34	13116	1103.512517447247	415
34	13140	1104.012517447247	416
34	13158	1106.012517447247	417
34	13172	1108.012517447247	418
34	13173	1108.012517447247	419
34	13209	1110.012517447247	420
34	13220	1112.012517447247	421
34	13229	1112.512517447247	422
34	13259	1114.012517447247	423
34	13272	1116.012517447247	424
34	13282	1117.012517447247	425
34	13311	1118.012517447247	426
34	13322	1120.012517447247	427
34	13333	1121.512517447247	428
34	13357	1122.012517447247	429
34	13373	1124.012517447247	430
34	13389	1126.012517447247	431
34	13390	1126.012517447247	432
34	13424	1128.012517447247	433
34	13435	1130.012517447247	434
34	13444	1130.512517447247	435
34	13476	1132.012517447247	436
34	13486	1134.012517447247	437
34	13496	1135.012517447247	438
34	13527	1136.012517447247	439
34	13537	1138.012517447247	440
34	13547	1139.512517447247	441
34	13571	1140.012517447247	442
34	13589	1142.012517447247	443
34	13603	1144.012517447247	444
34	13604	1144.012517447247	445
34	13640	1146.012517447247	446
34	13650	1148.012517447247	447
34	13659	1148.512517447247	448
34	13690	1150.012517447247	449
34	13702	1152.012517447247	450
34	13711	1153.012517447247	451
34	13741	1154.012517447247	452
34	13753	1156.012517447247	453
34	13763	1157.512517447247	454
34	13786	1158.012517447247	455
34	13803	1160.012517447247	456
34	13819	1162.012517447247	457
34	13820	1162.012517447247	458
34	13854	1164.012517447247	459
34	13866	1166.012517447247	460
34	13875	1166.512517447247	461
34	13905	1168.012517447247	462
34	13916	1170.012517447247	463
34	13927	1171.012517447247	464
34	13957	1172.012517447247	465
34	13967	1174.012517447247	466
34	13977	1175.512517447247	467
34	14002	1176.012517447247	468
34	14018	1178.012517447247	469
34	14033	1180.012517447247	470
34	14034	1180.012517447247	471
34	14070	1182.012517447247	472
34	14080	1184.012517447247	473
34	14089	1184.512517447247	474
34	14121	1186.012517447247	475
34	14131	1188.012517447247	476
34	14141	1189.012517447247	477
34	14171	1190.012517447247	478
34	14183	1192.012517447247	479
34	14192	1193.512517447247	480
34	14216	1194.012517447247	481
34	14234	1196.012517447247	482
34	14248	1198.012517447247	483
34	14249	1198.012517447247	484
34	14284	1200.012517447247	485
34	14296	1202.012517447247	486
34	14305	1202.512517447247	487
34	14335	1204.012517447247	488
34	14347	1206.012517447247	489
34	14357	1207.012517447247	490
34	14386	1208.012517447247	491
34	14397	1210.012517447247	492
34	14408	1211.512517447247	493
34	14432	1212.012517447247	494
34	14448	1214.012517447247	495
34	14465	1216.012517447247	496
34	14466	1216.012517447247	497
34	14500	1218.012517447247	498
34	14511	1220.012517447247	499
34	14519	1220.512517447247	500
34	14552	1222.012517447247	501
34	14563	1224.012517447247	502
34	14572	1225.012517447247	503
34	14603	1226.012517447247	504
34	14614	1228.012517447247	505
34	14624	1229.512517447247	506
34	14647	1230.012517447247	507
34	14666	1232.012517447247	508
34	14681	1234.012517447247	509
34	14682	1234.012517447247	510
34	14717	1236.012517447247	511
34	14728	1238.012517447247	512
34	14736	1238.512517447247	513
34	14767	1240.012517447247	514
34	14780	1242.012517447247	515
34	14789	1243.012517447247	516
34	14819	1244.012517447247	517
34	14831	1246.012517447247	518
34	14841	1247.512517447247	519
34	14864	1248.012517447247	520
34	14881	1250.012517447247	521
34	14898	1252.012517447247	522
34	14899	1252.012517447247	523
34	14933	1254.012517447247	524
34	14945	1256.012517447247	525
34	14953	1256.512517447247	526
34	14984	1258.012517447247	527
34	14995	1260.012517447247	528
34	15006	1261.012517447247	529
34	15036	1262.012517447247	530
34	15047	1264.012517447247	531
34	15056	1265.512517447247	532
34	15081	1266.012517447247	533
34	15097	1268.012517447247	534
34	15112	1270.012517447247	535
34	15113	1270.012517447247	536
34	15149	1272.012517447247	537
34	15159	1274.012517447247	538
34	15168	1274.512517447247	539
34	15200	1276.012517447247	540
34	15210	1278.012517447247	541
34	15220	1279.012517447247	542
34	15250	1280.012517447247	543
34	15262	1282.012517447247	544
34	15271	1283.512517447247	545
34	15295	1284.012517447247	546
34	15313	1286.012517447247	547
34	15327	1288.012517447247	548
34	15328	1288.012517447247	549
34	15363	1290.012517447247	550
34	15375	1292.012517447247	551
34	15384	1292.512517447247	552
34	15414	1294.012517447247	553
34	15426	1296.012517447247	554
34	15436	1297.012517447247	555
34	15465	1298.012517447247	556
34	15476	1300.012517447247	557
34	15487	1301.512517447247	558
34	15511	1302.012517447247	559
34	15527	1304.012517447247	560
34	15543	1306.012517447247	561
34	15544	1306.012517447247	562
34	15578	1308.012517447247	563
34	15589	1310.012517447247	564
34	15598	1310.512517447247	565
34	15630	1312.012517447247	566
34	15640	1314.012517447247	567
34	15650	1315.012517447247	568
34	15681	1316.012517447247	569
34	15691	1318.012517447247	570
34	15701	1319.512517447247	571
34	15725	1320.012517447247	572
34	15744	1322.012517447247	573
34	15758	1324.012517447247	574
34	15759	1324.012517447247	575
34	15794	1326.012517447247	576
34	15805	1328.012517447247	577
34	15814	1328.512517447247	578
34	15845	1330.012517447247	579
34	15856	1332.012517447247	580
34	15866	1333.012517447247	581
34	15896	1334.012517447247	582
34	15907	1336.012517447247	583
34	15917	1337.512517447247	584
34	15941	1338.012517447247	585
34	15958	1340.012517447247	586
34	15973	1342.012517447247	587
34	15974	1342.012517447247	588
34	16009	1344.012517447247	589
34	16020	1346.012517447247	590
34	16029	1346.512517447247	591
34	16060	1348.012517447247	592
34	16071	1350.012517447247	593
34	16081	1351.012517447247	594
34	16111	1352.012517447247	595
34	16122	1354.012517447247	596
34	16132	1355.512517447247	597
34	16156	1356.012517447247	598
34	16173	1358.012517447247	599
34	16188	1360.012517447247	600
34	16189	1360.012517447247	601
34	16224	1362.012517447247	602
34	16235	1364.012517447247	603
34	16244	1364.512517447247	604
34	16275	1366.012517447247	605
34	16286	1368.012517447247	606
34	16296	1369.012517447247	607
34	16326	1370.012517447247	608
34	16337	1372.012517447247	609
34	16347	1373.512517447247	610
34	16371	1374.012517447247	611
34	16388	1376.012517447247	612
34	16403	1378.012517447247	613
34	16404	1378.012517447247	614
34	16439	1380.012517447247	615
34	16450	1382.012517447247	616
34	16459	1382.512517447247	617
34	16490	1384.012517447247	618
34	16501	1386.012517447247	619
34	16511	1387.012517447247	620
34	16541	1388.012517447247	621
34	16552	1390.012517447247	622
34	16562	1391.512517447247	623
34	16586	1392.012517447247	624
34	16603	1394.012517447247	625
34	16618	1396.012517447247	626
34	16619	1396.012517447247	627
34	16654	1398.012517447247	628
34	16665	1400.012517447247	629
34	16674	1400.512517447247	630
34	16705	1402.012517447247	631
34	16716	1404.012517447247	632
34	16726	1405.012517447247	633
34	16756	1406.012517447247	634
34	16767	1408.012517447247	635
34	16777	1409.512517447247	636
34	16801	1410.012517447247	637
34	16818	1412.012517447247	638
34	16833	1414.012517447247	639
34	16834	1414.012517447247	640
34	16869	1416.012517447247	641
34	16880	1418.012517447247	642
34	16889	1418.512517447247	643
34	16920	1420.012517447247	644
34	16931	1422.012517447247	645
34	16941	1423.012517447247	646
34	16971	1424.012517447247	647
34	16982	1426.012517447247	648
34	16992	1427.512517447247	649
34	17016	1428.012517447247	650
34	17033	1430.012517447247	651
34	17048	1432.012517447247	652
34	17049	1432.012517447247	653
34	17084	1434.012517447247	654
34	17095	1436.012517447247	655
34	17104	1436.512517447247	656
34	17135	1438.012517447247	657
34	17146	1440.012517447247	658
34	17156	1441.012517447247	659
34	17186	1442.012517447247	660
34	17197	1444.012517447247	661
34	17207	1445.512517447247	662
34	17231	1446.012517447247	663
34	17248	1448.012517447247	664
34	17263	1450.012517447247	665
34	17264	1450.012517447247	666
34	17299	1452.012517447247	667
34	17310	1454.012517447247	668
34	17319	1454.512517447247	669
34	17350	1456.012517447247	670
34	17361	1458.012517447247	671
34	17371	1459.012517447247	672
34	17401	1460.012517447247	673
34	17412	1462.012517447247	674
34	17422	1463.512517447247	675
34	17446	1464.012517447247	676
34	17463	1466.012517447247	677
34	17478	1468.012517447247	678
34	17479	1468.012517447247	679
34	17514	1470.012517447247	680
34	17525	1472.012517447247	681
34	17534	1472.512517447247	682
34	17565	1474.012517447247	683
34	17576	1476.012517447247	684
34	17586	1477.012517447247	685
34	17616	1478.012517447247	686
34	17627	1480.012517447247	687
34	17637	1481.512517447247	688
34	17661	1482.012517447247	689
34	17678	1484.012517447247	690
34	17693	1486.012517447247	691
34	17694	1486.012517447247	692
34	17729	1488.012517447247	693
34	17740	1490.012517447247	694
34	17749	1490.512517447247	695
34	17780	1492.012517447247	696
34	17791	1494.012517447247	697
34	17801	1495.012517447247	698
34	17831	1496.012517447247	699
34	17842	1498.012517447247	700
34	17852	1499.512517447247	701
34	17876	1500.012517447247	702
34	17893	1502.012517447247	703
34	17908	1504.012517447247	704
34	17909	1504.012517447247	705
34	17944	1506.012517447247	706
34	17955	1508.012517447247	707
34	17964	1508.512517447247	708
34	17995	1510.012517447247	709
34	18006	1512.012517447247	710
34	18016	1513.012517447247	711
34	18047	1514.012517447247	712
34	18058	1516.012517447247	713
34	18068	1517.512517447247	714
34	18091	1518.012517447247	715
34	18109	1520.012517447247	716
34	18124	1522.012517447247	717
34	18125	1522.012517447247	718
34	18159	1524.012517447247	719
34	18171	1526.012517447247	720
34	18180	1526.512517447247	721
34	18210	1528.012517447247	722
34	18222	1530.012517447247	723
34	18232	1531.012517447247	724
34	18262	1532.012517447247	725
34	18272	1534.012517447247	726
34	18283	1535.512517447247	727
34	18307	1536.012517447247	728
34	18323	1538.012517447247	729
34	18339	1540.012517447247	730
34	18340	1540.012517447247	731
34	18375	1542.012517447247	732
34	18385	1544.012517447247	733
34	18394	1544.512517447247	734
34	18426	1546.012517447247	735
34	18436	1548.012517447247	736
34	18446	1549.012517447247	737
34	18477	1550.012517447247	738
34	18488	1552.012517447247	739
34	18497	1553.512517447247	740
34	18521	1554.012517447247	741
34	18539	1556.012517447247	742
34	18553	1558.012517447247	743
34	18554	1558.012517447247	744
34	18590	1560.012517447247	745
34	18601	1562.012517447247	746
34	18610	1562.512517447247	747
34	18640	1564.012517447247	748
34	18652	1566.012517447247	749
34	18662	1567.012517447247	750
34	18691	1568.012517447247	751
34	18703	1570.012517447247	752
34	18713	1571.512517447247	753
34	18737	1572.012517447247	754
34	18753	1574.012517447247	755
34	18769	1576.012517447247	756
34	18770	1576.012517447247	757
34	18804	1578.012517447247	758
34	18816	1580.012517447247	759
34	18825	1580.512517447247	760
34	18856	1582.012517447247	761
34	18866	1584.012517447247	762
34	18877	1585.012517447247	763
34	18907	1586.012517447247	764
34	18917	1588.012517447247	765
34	18927	1589.512517447247	766
34	18952	1590.012517447247	767
34	18969	1592.012517447247	768
34	18983	1594.012517447247	769
34	18984	1594.012517447247	770
34	19020	1596.012517447247	771
34	19030	1598.012517447247	772
34	19039	1598.512517447247	773
34	19071	1600.012517447247	774
34	19082	1602.012517447247	775
34	19091	1603.012517447247	776
34	19121	1604.012517447247	777
34	19133	1606.012517447247	778
34	19143	1607.512517447247	779
34	19166	1608.012517447247	780
34	19184	1610.012517447247	781
34	19199	1612.012517447247	782
34	19200	1612.012517447247	783
34	19234	1614.012517447247	784
34	19246	1616.012517447247	785
34	19255	1616.512517447247	786
34	19285	1618.012517447247	787
34	29387	2465.029006282638	788
34	29411	2467.029006282638	789
34	29435	2469.029006282638	790
34	29444	2469.529006282638	791
34	29473	2471.029006282638	792
34	29485	2473.029006282638	793
34	29496	2474.029006282638	794
34	29525	2475.029006282638	795
34	29537	2477.029006282638	796
34	29546	2478.529006282638	797
34	29571	2479.029006282638	798
34	29586	2481.029006282638	799
34	29602	2483.029006282638	800
34	29603	2483.029006282638	801
34	29638	2485.029006282638	802
34	29650	2487.029006282638	803
34	29659	2487.529006282638	804
34	29690	2489.029006282638	805
34	29699	2491.029006282638	806
34	29711	2492.029006282638	807
34	29740	2493.029006282638	808
34	29751	2495.029006282638	809
34	29760	2496.529006282638	810
34	29786	2497.029006282638	811
34	29803	2499.029006282638	812
34	29816	2501.029006282638	813
34	29817	2501.029006282638	814
34	29853	2503.029006282638	815
34	29864	2505.029006282638	816
34	29873	2505.529006282638	817
34	29905	2507.029006282638	818
34	29916	2509.029006282638	819
34	29925	2510.029006282638	820
34	29954	2511.029006282638	821
34	29966	2513.029006282638	822
34	29977	2514.529006282638	823
34	30000	2515.029006282638	824
34	30018	2517.029006282638	825
34	30033	2519.029006282638	826
34	30034	2519.029006282638	827
34	30067	2521.029006282638	828
34	30079	2523.029006282638	829
34	30088	2523.529006282638	830
34	30119	2525.029006282638	831
34	30131	2527.029006282638	832
34	30140	2528.029006282638	833
34	30170	2529.029006282638	834
34	30180	2531.029006282638	835

