version 2
run StaticNetwork-0-20220312-20:12:39-12308
attr configname StaticNetwork
attr datetime 20220312-20:12:39
attr experiment StaticNetwork
attr inifile omnetpp.ini
attr iterationvars "$0=1, $1=7, $2=0"
attr iterationvarsf 1,7,0-
attr measurement "$0=1, $1=7, $2=0"
attr network RAFT_Network
attr processid 12308
attr repetition 0
attr replication #0
attr resultdir results
attr runnumber 0
attr seedset 0
param **.failureProbability 1
param **.recoveryProbability 7
param **.messageLossProbability 0
param **.clients_number 5
param **.cloud.propDelay 0.1s

vector 0 RAFT_Network.server[0] serverState ETV
vector 1 RAFT_Network.server[1] serverState ETV
vector 2 RAFT_Network.server[2] serverState ETV
vector 3 RAFT_Network.server[3] serverState ETV
vector 4 RAFT_Network.server[4] serverState ETV
0	0	0	0
0	11	2.264876189682	0
0	11	2.264876189682	1
0	17	2.398184449391	1
0	17	2.398184449391	2
0	392	27	2
0	392	27	-1
0	615	48	-1
0	615	48	0
0	625	48.632229962877	0
0	625	48.632229962877	0
0	674	50	0
1	0	0	0
1	13	2.30466991491	0
1	13	2.30466991491	0
1	413	30.406436652555	0
1	413	30.406436652555	0
1	573	43	0
1	573	43	-1
1	578	44	-1
1	578	44	0
1	585	44.588100073593	0
1	585	44.588100073593	0
1	674	50	0
2	0	0	0
2	15	2.327672727584	0
2	15	2.327672727584	0
2	412	30.357586331235	0
2	412	30.357586331235	1
2	418	30.539249752273	1
2	418	30.539249752273	2
2	674	50	2
3	0	0	0
3	14	2.311037346256	0
3	14	2.311037346256	0
3	36	4	0
3	36	4	-1
3	78	8	-1
3	78	8	0
3	99	8.444345605965	0
3	99	8.444345605965	0
3	133	11	0
3	133	11	-1
3	179	13	-1
3	179	13	0
3	189	14.444345605965	0
3	189	14.444345605965	0
3	311	21	0
3	311	21	-1
3	445	33	-1
3	445	33	0
3	471	34.650425973375	0
3	471	34.650425973375	0
3	674	50	0
4	0	0	0
4	12	2.304236246681	0
4	12	2.304236246681	0
4	417	30.523331945231	0
4	417	30.523331945231	0
4	674	50	0

