version 2
run StaticNetwork-3-20220331-19:53:32-1940
attr configname StaticNetwork
attr datetime 20220331-19:53:32
attr experiment StaticNetwork
attr inifile omnetpp.ini
attr iterationvars "$0=5, $1=5, $2=normal(7.0s, 1.5s), $3=uniform(0.1s, 0.3s), $4=normal(5.0s, 1s), $5=2s, $6=4.5s, $7=10s, $8=1s, $9=1, $10=7, $11=0"
attr iterationvarsf 5,5,normal(7.0s,_1.5s),uniform(0.1s,_0.3s),normal(5.0s,_1s),2s,4.5s,10s,1s,1,7,0-
attr measurement "$0=5, $1=5, $2=normal(7.0s, 1.5s), $3=uniform(0.1s, 0.3s), $4=normal(5.0s, 1s), $5=2s, $6=4.5s, $7=10s, $8=1s, $9=1, $10=7, $11=0"
attr network RAFT_Network
attr processid 1940
attr repetition 1
attr replication #1
attr resultdir results
attr runnumber 3
attr seedset 3
param **.servers_number 5
param **.clients_number 5
param **.client[*].requestMsgTimeout "normal(7.0s, 1.5s)"
param **.cloud.propDelay "uniform(0.1s, 0.3s)"
param **.server[*].electionTimeout "normal(5.0s, 1s)"
param **.server[*].heartbeatTimeout 2s
param **.server[*].appendEntriesTimeout 4.5s
param **.server[*].checkFailureTimeout 10s
param **.server[*].checkRecoveryTimeout 1s
param **.failureProbability 1
param **.recoveryProbability 7
param **.messageLossProbability 0

vector 0 RAFT_Network.server[0] serverState ETV
vector 1 RAFT_Network.server[1] serverState ETV
vector 2 RAFT_Network.server[2] serverState ETV
vector 3 RAFT_Network.server[3] serverState ETV
vector 4 RAFT_Network.server[4] serverState ETV
vector 5 RAFT_Network.server[4] totMsgSent ETV
vector 6 RAFT_Network.server[4] totRequestVoteMsgSent ETV
vector 7 RAFT_Network.server[3] totMsgReceived ETV
vector 8 RAFT_Network.server[3] totMsgSent ETV
vector 9 RAFT_Network.server[3] totReplyToClientRequestMsgSent ETV
vector 10 RAFT_Network.server[2] totMsgReceived ETV
vector 11 RAFT_Network.server[2] totMsgSent ETV
vector 12 RAFT_Network.server[2] totReplyToClientRequestMsgSent ETV
vector 13 RAFT_Network.server[1] totMsgReceived ETV
vector 14 RAFT_Network.server[1] totMsgSent ETV
vector 15 RAFT_Network.server[1] totReplyToClientRequestMsgSent ETV
vector 16 RAFT_Network.server[4] totMsgReceived ETV
vector 17 RAFT_Network.server[0] totMsgReceived ETV
vector 18 RAFT_Network.server[0] totMsgSent ETV
vector 19 RAFT_Network.server[0] totReplyToClientRequestMsgSent ETV
vector 20 RAFT_Network.server[0] electionsMeanTime ETV
vector 21 RAFT_Network.server[4] totAppendEntriesMsgSent ETV
vector 22 RAFT_Network.server[3] totReplyToAppendEntriesMsgSent ETV
vector 23 RAFT_Network.server[2] totReplyToAppendEntriesMsgSent ETV
vector 24 RAFT_Network.server[1] totReplyToAppendEntriesMsgSent ETV
vector 25 RAFT_Network.server[0] totReplyToAppendEntriesMsgSent ETV
vector 26 RAFT_Network.server[4] totReplyToClientRequestMsgSent ETV
vector 27 RAFT_Network.client[4] responseTime ETV
vector 28 RAFT_Network.client[1] responseTime ETV
vector 29 RAFT_Network.client[0] responseTime ETV
vector 30 RAFT_Network.client[2] responseTime ETV
vector 31 RAFT_Network.client[3] responseTime ETV
vector 32 RAFT_Network.server[3] totRequestVoteMsgSent ETV
vector 33 RAFT_Network.server[3] totAppendEntriesMsgSent ETV
vector 34 RAFT_Network.server[4] totReplyToAppendEntriesMsgSent ETV
0	0	0	0
0	6	3.10557199999	0
0	6	3.10557199999	0
0	3395	300	0
0	3395	300	-1
0	3657	322	-1
0	3657	322	0
0	8936	782	0
0	8936	782	-1
0	9174	804	-1
0	9174	804	0
0	11126	974	0
0	11126	974	-1
0	11174	978	-1
0	11174	978	0
0	13499	1183.05483849968	0
0	13499	1183.05483849968	0
0	15671	1372.307804181552	0
0	15671	1372.307804181552	0
0	29691	2596.27839613	0
0	29691	2596.27839613	0
0	35904	3138	0
0	35904	3138	-1
0	36004	3146	-1
0	36004	3146	0
0	49513	4327.531361811872	0
0	49513	4327.531361811872	0
0	51769	4527.50195376032	0
0	51769	4527.50195376032	0
0	57183	5000	0
1	0	0	0
1	4	3.090101038679	0
1	4	3.090101038679	0
1	13497	1183.039731942378	0
1	13497	1183.039731942378	0
1	15669	1372.292333220241	0
1	15669	1372.292333220241	0
1	16339	1430	0
1	16339	1430	-1
1	16598	1452	-1
1	16598	1452	0
1	29689	2596.263289572698	0
1	29689	2596.263289572698	0
1	42241	3692	0
1	42241	3692	-1
1	42324	3699	-1
1	42324	3699	0
1	49511	4327.515890850561	0
1	49511	4327.515890850561	0
1	51767	4527.486847203018	0
1	51767	4527.486847203018	0
1	57183	5000	0
2	0	0	0
2	3	3.075997880978	0
2	3	3.075997880978	0
2	13498	1183.053523005523	0
2	13498	1183.053523005523	0
2	15668	1372.27823006254	0
2	15668	1372.27823006254	0
2	24705	2160	0
2	24705	2160	-1
2	25319	2213	-1
2	25319	2213	0
2	29690	2596.277080635843	0
2	29690	2596.277080635843	0
2	44880	3923	0
2	44880	3923	-1
2	45190	3949	-1
2	45190	3949	0
2	49510	4327.50178769286	0
2	49510	4327.50178769286	0
2	51240	4479	0
2	51240	4479	-1
2	51339	4487	-1
2	51339	4487	0
2	51768	4527.500638266163	0
2	51768	4527.500638266163	0
2	57183	5000	0
3	0	0	0
3	2	3.065852661625	0
3	2	3.065852661625	0
3	13496	1183.038518235856	0
3	13496	1183.038518235856	1
3	13503	1183.161997849954	1
3	13503	1183.161997849954	2
3	15663	1370	2
3	15663	1370	-1
3	15829	1385	-1
3	15829	1385	0
3	15856	1386.346315225779	0
3	15856	1386.346315225779	0
3	29478	2575	0
3	29478	2575	-1
3	29479	2576	-1
3	29479	2576	0
3	29688	2596.262075866176	0
3	29688	2596.262075866176	1
3	29695	2596.385555480274	1
3	29695	2596.385555480274	2
3	49505	4326	2
3	49505	4326	-1
3	49642	4339	-1
3	49642	4339	0
3	49644	4339.569872856099	0
3	49644	4339.569872856099	0
3	51766	4527.485633496496	0
3	51766	4527.485633496496	1
3	51772	4527.609113110594	1
3	51772	4527.609113110594	2
3	57183	5000	2
4	0	0	0
4	1	3.049182059399	0
4	1	3.049182059399	1
4	7	3.106086993233	1
4	7	3.106086993233	2
4	13492	1180	2
4	13492	1180	-1
4	13495	1183	-1
4	13495	1183	0
4	13501	1183.078752567464	0
4	13501	1183.078752567464	0
4	15666	1372.251414240961	0
4	15666	1372.251414240961	1
4	15672	1372.329644623553	1
4	15672	1372.329644623553	2
4	29684	2593	2
4	29684	2593	-1
4	29686	2594	-1
4	29686	2594	0
4	29693	2596.302310197784	0
4	29693	2596.302310197784	0
4	49508	4327.474971871281	0
4	49508	4327.474971871281	1
4	49514	4327.553202253873	1
4	49514	4327.553202253873	2
4	51760	4524	2
4	51760	4524	-1
4	51783	4528	-1
4	51783	4528	0
4	51809	4529.649347442202	0
4	51809	4529.649347442202	0
4	52942	4628	0
4	52942	4628	-1
4	52955	4631	-1
4	52955	4631	0
4	57183	5000	0
5	1	3.049182059399	1
5	1	3.049182059399	2
5	1	3.049182059399	3
5	1	3.049182059399	4
5	7	3.106086993233	5
5	7	3.106086993233	6
5	7	3.106086993233	7
5	7	3.106086993233	8
5	18	5.106086993233	9
5	18	5.106086993233	10
5	18	5.106086993233	11
5	18	5.106086993233	12
5	35	7.106086993233	13
5	35	7.106086993233	14
5	35	7.106086993233	15
5	35	7.106086993233	16
5	53	7.606086993233	17
5	53	7.606086993233	18
5	53	7.606086993233	19
5	53	7.606086993233	20
5	59	7.662991927067	21
5	73	9.106086993233	22
5	73	9.106086993233	23
5	73	9.106086993233	24
5	73	9.106086993233	25
5	94	11.106086993233	26
5	94	11.106086993233	27
5	94	11.106086993233	28
5	94	11.106086993233	29
5	103	12.106086993233	30
5	103	12.106086993233	31
5	103	12.106086993233	32
5	103	12.106086993233	33
5	109	12.162991927067	34
5	109	12.162991927067	35
5	109	12.162991927067	36
5	109	12.162991927067	37
5	109	12.162991927067	38
5	132	13.106086993233	39
5	132	13.106086993233	40
5	132	13.106086993233	41
5	132	13.106086993233	42
5	141	15.106086993233	43
5	141	15.106086993233	44
5	141	15.106086993233	45
5	141	15.106086993233	46
5	150	16.606086993233	47
5	150	16.606086993233	48
5	150	16.606086993233	49
5	150	16.606086993233	50
5	156	16.662991927067	51
5	156	16.662991927067	52
5	156	16.662991927067	53
5	156	16.662991927067	54
5	156	16.662991927067	55
5	175	17.106086993233	56
5	175	17.106086993233	57
5	175	17.106086993233	58
5	175	17.106086993233	59
5	188	19.106086993233	60
5	188	19.106086993233	61
5	188	19.106086993233	62
5	188	19.106086993233	63
5	202	21.106086993233	64
5	202	21.106086993233	65
5	202	21.106086993233	66
5	202	21.106086993233	67
5	203	21.106086993233	68
5	203	21.106086993233	69
5	203	21.106086993233	70
5	203	21.106086993233	71
5	214	21.162991927067	72
5	214	21.162991927067	73
5	214	21.162991927067	74
5	214	21.162991927067	75
5	214	21.162991927067	76
5	240	23.106086993233	77
5	240	23.106086993233	78
5	240	23.106086993233	79
5	240	23.106086993233	80
5	249	25.106086993233	81
5	249	25.106086993233	82
5	249	25.106086993233	83
5	249	25.106086993233	84
5	258	25.606086993233	85
5	258	25.606086993233	86
5	258	25.606086993233	87
5	258	25.606086993233	88
5	264	25.662991927067	89
5	264	25.662991927067	90
5	264	25.662991927067	91
5	264	25.662991927067	92
5	264	25.662991927067	93
5	287	27.106086993233	94
5	287	27.106086993233	95
5	287	27.106086993233	96
5	287	27.106086993233	97
5	296	29.106086993233	98
5	296	29.106086993233	99
5	296	29.106086993233	100
5	296	29.106086993233	101
5	310	30.106086993233	102
5	310	30.106086993233	103
5	310	30.106086993233	104
5	310	30.106086993233	105
5	316	30.162991927067	106
5	316	30.162991927067	107
5	316	30.162991927067	108
5	316	30.162991927067	109
5	316	30.162991927067	110
5	339	31.106086993233	111
5	339	31.106086993233	112
5	339	31.106086993233	113
5	339	31.106086993233	114
5	348	33.106086993233	115
5	348	33.106086993233	116
5	348	33.106086993233	117
5	348	33.106086993233	118
5	357	34.606086993233	119
5	357	34.606086993233	120
5	357	34.606086993233	121
5	357	34.606086993233	122
5	363	34.662991927067	123
5	363	34.662991927067	124
5	363	34.662991927067	125
5	363	34.662991927067	126
5	363	34.662991927067	127
5	382	35.106086993233	128
5	382	35.106086993233	129
5	382	35.106086993233	130
5	382	35.106086993233	131
5	395	37.106086993233	132
5	395	37.106086993233	133
5	395	37.106086993233	134
5	395	37.106086993233	135
5	404	39.106086993233	136
5	404	39.106086993233	137
5	404	39.106086993233	138
5	404	39.106086993233	139
5	405	39.106086993233	140
5	405	39.106086993233	141
5	405	39.106086993233	142
5	405	39.106086993233	143
5	416	39.162991927067	144
5	416	39.162991927067	145
5	416	39.162991927067	146
5	416	39.162991927067	147
5	416	39.162991927067	148
5	447	41.106086993233	149
5	447	41.106086993233	150
5	447	41.106086993233	151
5	447	41.106086993233	152
5	456	43.106086993233	153
5	456	43.106086993233	154
5	456	43.106086993233	155
5	456	43.106086993233	156
5	465	43.606086993233	157
5	465	43.606086993233	158
5	465	43.606086993233	159
5	465	43.606086993233	160
5	471	43.662991927067	161
5	471	43.662991927067	162
5	471	43.662991927067	163
5	471	43.662991927067	164
5	471	43.662991927067	165
5	494	45.106086993233	166
5	494	45.106086993233	167
5	494	45.106086993233	168
5	494	45.106086993233	169
5	503	47.106086993233	170
5	503	47.106086993233	171
5	503	47.106086993233	172
5	503	47.106086993233	173
5	512	48.106086993233	174
5	512	48.106086993233	175
5	512	48.106086993233	176
5	512	48.106086993233	177
5	518	48.162991927067	178
5	518	48.162991927067	179
5	518	48.162991927067	180
5	518	48.162991927067	181
5	518	48.162991927067	182
5	541	49.106086993233	183
5	541	49.106086993233	184
5	541	49.106086993233	185
5	541	49.106086993233	186
5	555	51.106086993233	187
5	555	51.106086993233	188
5	555	51.106086993233	189
5	555	51.106086993233	190
5	564	52.606086993233	191
5	564	52.606086993233	192
5	564	52.606086993233	193
5	564	52.606086993233	194
5	570	52.662991927067	195
5	570	52.662991927067	196
5	570	52.662991927067	197
5	570	52.662991927067	198
5	570	52.662991927067	199
5	589	53.106086993233	200
5	589	53.106086993233	201
5	589	53.106086993233	202
5	589	53.106086993233	203
5	602	55.106086993233	204
5	602	55.106086993233	205
5	602	55.106086993233	206
5	602	55.106086993233	207
5	611	57.106086993233	208
5	611	57.106086993233	209
5	611	57.106086993233	210
5	611	57.106086993233	211
5	612	57.106086993233	212
5	612	57.106086993233	213
5	612	57.106086993233	214
5	612	57.106086993233	215
5	623	57.162991927067	216
5	623	57.162991927067	217
5	623	57.162991927067	218
5	623	57.162991927067	219
5	623	57.162991927067	220
5	649	59.106086993233	221
5	649	59.106086993233	222
5	649	59.106086993233	223
5	649	59.106086993233	224
5	663	61.106086993233	225
5	663	61.106086993233	226
5	663	61.106086993233	227
5	663	61.106086993233	228
5	672	61.606086993233	229
5	672	61.606086993233	230
5	672	61.606086993233	231
5	672	61.606086993233	232
5	678	61.662991927067	233
5	678	61.662991927067	234
5	678	61.662991927067	235
5	678	61.662991927067	236
5	678	61.662991927067	237
5	701	63.106086993233	238
5	701	63.106086993233	239
5	701	63.106086993233	240
5	701	63.106086993233	241
5	710	65.106086993233	242
5	710	65.106086993233	243
5	710	65.106086993233	244
5	710	65.106086993233	245
5	719	66.106086993233	246
5	719	66.106086993233	247
5	719	66.106086993233	248
5	719	66.106086993233	249
5	725	66.162991927067	250
5	725	66.162991927067	251
5	725	66.162991927067	252
5	725	66.162991927067	253
5	725	66.162991927067	254
5	748	67.106086993233	255
5	748	67.106086993233	256
5	748	67.106086993233	257
5	748	67.106086993233	258
5	757	69.106086993233	259
5	757	69.106086993233	260
5	757	69.106086993233	261
5	757	69.106086993233	262
5	771	70.606086993233	263
5	771	70.606086993233	264
5	771	70.606086993233	265
5	771	70.606086993233	266
5	777	70.662991927067	267
5	777	70.662991927067	268
5	777	70.662991927067	269
5	777	70.662991927067	270
5	777	70.662991927067	271
5	796	71.106086993233	272
5	796	71.106086993233	273
5	796	71.106086993233	274
5	796	71.106086993233	275
5	809	73.106086993233	276
5	809	73.106086993233	277
5	809	73.106086993233	278
5	809	73.106086993233	279
5	818	75.106086993233	280
5	818	75.106086993233	281
5	818	75.106086993233	282
5	818	75.106086993233	283
5	819	75.106086993233	284
5	819	75.106086993233	285
5	819	75.106086993233	286
5	819	75.106086993233	287
5	830	75.162991927067	288
5	830	75.162991927067	289
5	830	75.162991927067	290
5	830	75.162991927067	291
5	830	75.162991927067	292
5	856	77.106086993233	293
5	856	77.106086993233	294
5	856	77.106086993233	295
5	856	77.106086993233	296
5	865	79.106086993233	297
5	865	79.106086993233	298
5	865	79.106086993233	299
5	865	79.106086993233	300
5	874	79.606086993233	301
5	874	79.606086993233	302
5	874	79.606086993233	303
5	874	79.606086993233	304
5	880	79.662991927067	305
5	880	79.662991927067	306
5	880	79.662991927067	307
5	880	79.662991927067	308
5	880	79.662991927067	309
5	908	81.106086993233	310
5	908	81.106086993233	311
5	908	81.106086993233	312
5	908	81.106086993233	313
5	917	83.106086993233	314
5	917	83.106086993233	315
5	917	83.106086993233	316
5	917	83.106086993233	317
5	926	84.106086993233	318
5	926	84.106086993233	319
5	926	84.106086993233	320
5	926	84.106086993233	321
5	932	84.162991927067	322
5	932	84.162991927067	323
5	932	84.162991927067	324
5	932	84.162991927067	325
5	932	84.162991927067	326
5	955	85.106086993233	327
5	955	85.106086993233	328
5	955	85.106086993233	329
5	955	85.106086993233	330
5	964	87.106086993233	331
5	964	87.106086993233	332
5	964	87.106086993233	333
5	964	87.106086993233	334
5	973	88.606086993233	335
5	973	88.606086993233	336
5	973	88.606086993233	337
5	973	88.606086993233	338
5	979	88.662991927067	339
5	979	88.662991927067	340
5	979	88.662991927067	341
5	979	88.662991927067	342
5	979	88.662991927067	343
5	998	89.106086993233	344
5	998	89.106086993233	345
5	998	89.106086993233	346
5	998	89.106086993233	347
5	1016	91.106086993233	348
5	1016	91.106086993233	349
5	1016	91.106086993233	350
5	1016	91.106086993233	351
5	1025	93.106086993233	352
5	1025	93.106086993233	353
5	1025	93.106086993233	354
5	1025	93.106086993233	355
5	1026	93.106086993233	356
5	1026	93.106086993233	357
5	1026	93.106086993233	358
5	1026	93.106086993233	359
5	1037	93.162991927067	360
5	1037	93.162991927067	361
5	1037	93.162991927067	362
5	1037	93.162991927067	363
5	1037	93.162991927067	364
5	1063	95.106086993233	365
5	1063	95.106086993233	366
5	1063	95.106086993233	367
5	1063	95.106086993233	368
5	1072	97.106086993233	369
5	1072	97.106086993233	370
5	1072	97.106086993233	371
5	1072	97.106086993233	372
5	1081	97.606086993233	373
5	1081	97.606086993233	374
5	1081	97.606086993233	375
5	1081	97.606086993233	376
5	1087	97.662991927067	377
5	1087	97.662991927067	378
5	1087	97.662991927067	379
5	1087	97.662991927067	380
5	1087	97.662991927067	381
5	1110	99.106086993233	382
5	1110	99.106086993233	383
5	1110	99.106086993233	384
5	1110	99.106086993233	385
5	1124	101.106086993233	386
5	1124	101.106086993233	387
5	1124	101.106086993233	388
5	1124	101.106086993233	389
5	1133	102.106086993233	390
5	1133	102.106086993233	391
5	1133	102.106086993233	392
5	1133	102.106086993233	393
5	1139	102.162991927067	394
5	1139	102.162991927067	395
5	1139	102.162991927067	396
5	1139	102.162991927067	397
5	1139	102.162991927067	398
5	1162	103.106086993233	399
5	1162	103.106086993233	400
5	1162	103.106086993233	401
5	1162	103.106086993233	402
5	1171	105.106086993233	403
5	1171	105.106086993233	404
5	1171	105.106086993233	405
5	1171	105.106086993233	406
5	1180	106.606086993233	407
5	1180	106.606086993233	408
5	1180	106.606086993233	409
5	1180	106.606086993233	410
5	1186	106.662991927067	411
5	1186	106.662991927067	412
5	1186	106.662991927067	413
5	1186	106.662991927067	414
5	1186	106.662991927067	415
5	1205	107.106086993233	416
5	1205	107.106086993233	417
5	1205	107.106086993233	418
5	1205	107.106086993233	419
5	1218	109.106086993233	420
5	1218	109.106086993233	421
5	1218	109.106086993233	422
5	1218	109.106086993233	423
5	1232	111.106086993233	424
5	1232	111.106086993233	425
5	1232	111.106086993233	426
5	1232	111.106086993233	427
5	1233	111.106086993233	428
5	1233	111.106086993233	429
5	1233	111.106086993233	430
5	1233	111.106086993233	431
5	1244	111.162991927067	432
5	1244	111.162991927067	433
5	1244	111.162991927067	434
5	1244	111.162991927067	435
5	1244	111.162991927067	436
5	1270	113.106086993233	437
5	1270	113.106086993233	438
5	1270	113.106086993233	439
5	1270	113.106086993233	440
5	1279	115.106086993233	441
5	1279	115.106086993233	442
5	1279	115.106086993233	443
5	1279	115.106086993233	444
5	1288	115.606086993233	445
5	1288	115.606086993233	446
5	1288	115.606086993233	447
5	1288	115.606086993233	448
5	1294	115.662991927067	449
5	1294	115.662991927067	450
5	1294	115.662991927067	451
5	1294	115.662991927067	452
5	1294	115.662991927067	453
5	1317	117.106086993233	454
5	1317	117.106086993233	455
5	1317	117.106086993233	456
5	1317	117.106086993233	457
5	1326	119.106086993233	458
5	1326	119.106086993233	459
5	1326	119.106086993233	460
5	1326	119.106086993233	461
5	1340	120.106086993233	462
5	1340	120.106086993233	463
5	1340	120.106086993233	464
5	1340	120.106086993233	465
5	1346	120.162991927067	466
5	1346	120.162991927067	467
5	1346	120.162991927067	468
5	1346	120.162991927067	469
5	1346	120.162991927067	470
5	1369	121.106086993233	471
5	1369	121.106086993233	472
5	1369	121.106086993233	473
5	1369	121.106086993233	474
5	1378	123.106086993233	475
5	1378	123.106086993233	476
5	1378	123.106086993233	477
5	1378	123.106086993233	478
5	1387	124.606086993233	479
5	1387	124.606086993233	480
5	1387	124.606086993233	481
5	1387	124.606086993233	482
5	1393	124.662991927067	483
5	1393	124.662991927067	484
5	1393	124.662991927067	485
5	1393	124.662991927067	486
5	1393	124.662991927067	487
5	1412	125.106086993233	488
5	1412	125.106086993233	489
5	1412	125.106086993233	490
5	1412	125.106086993233	491
5	1425	127.106086993233	492
5	1425	127.106086993233	493
5	1425	127.106086993233	494
5	1425	127.106086993233	495
5	1434	129.106086993233	496
5	1434	129.106086993233	497
5	1434	129.106086993233	498
5	1434	129.106086993233	499
5	1435	129.106086993233	500
5	1435	129.106086993233	501
5	1435	129.106086993233	502
5	1435	129.106086993233	503
5	1446	129.162991927067	504
5	1446	129.162991927067	505
5	1446	129.162991927067	506
5	1446	129.162991927067	507
5	1446	129.162991927067	508
5	1477	131.106086993233	509
5	1477	131.106086993233	510
5	1477	131.106086993233	511
5	1477	131.106086993233	512
5	1486	133.106086993233	513
5	1486	133.106086993233	514
5	1486	133.106086993233	515
5	1486	133.106086993233	516
5	1495	133.606086993233	517
5	1495	133.606086993233	518
5	1495	133.606086993233	519
5	1495	133.606086993233	520
5	1501	133.662991927067	521
5	1501	133.662991927067	522
5	1501	133.662991927067	523
5	1501	133.662991927067	524
5	1501	133.662991927067	525
5	1524	135.106086993233	526
5	1524	135.106086993233	527
5	1524	135.106086993233	528
5	1524	135.106086993233	529
5	1533	137.106086993233	530
5	1533	137.106086993233	531
5	1533	137.106086993233	532
5	1533	137.106086993233	533
5	1542	138.106086993233	534
5	1542	138.106086993233	535
5	1542	138.106086993233	536
5	1542	138.106086993233	537
5	1548	138.162991927067	538
5	1548	138.162991927067	539
5	1548	138.162991927067	540
5	1548	138.162991927067	541
5	1548	138.162991927067	542
5	1571	139.106086993233	543
5	1571	139.106086993233	544
5	1571	139.106086993233	545
5	1571	139.106086993233	546
5	1585	141.106086993233	547
5	1585	141.106086993233	548
5	1585	141.106086993233	549
5	1585	141.106086993233	550
5	1594	142.606086993233	551
5	1594	142.606086993233	552
5	1594	142.606086993233	553
5	1594	142.606086993233	554
5	1600	142.662991927067	555
5	1600	142.662991927067	556
5	1600	142.662991927067	557
5	1600	142.662991927067	558
5	1600	142.662991927067	559
5	1619	143.106086993233	560
5	1619	143.106086993233	561
5	1619	143.106086993233	562
5	1619	143.106086993233	563
5	1632	145.106086993233	564
5	1632	145.106086993233	565
5	1632	145.106086993233	566
5	1632	145.106086993233	567
5	1641	147.106086993233	568
5	1641	147.106086993233	569
5	1641	147.106086993233	570
5	1641	147.106086993233	571
5	1642	147.106086993233	572
5	1642	147.106086993233	573
5	1642	147.106086993233	574
5	1642	147.106086993233	575
5	1653	147.162991927067	576
5	1653	147.162991927067	577
5	1653	147.162991927067	578
5	1653	147.162991927067	579
5	1653	147.162991927067	580
5	1679	149.106086993233	581
5	1679	149.106086993233	582
5	1679	149.106086993233	583
5	1679	149.106086993233	584
5	1693	151.106086993233	585
5	1693	151.106086993233	586
5	1693	151.106086993233	587
5	1693	151.106086993233	588
5	1702	151.606086993233	589
5	1702	151.606086993233	590
5	1702	151.606086993233	591
5	1702	151.606086993233	592
5	1708	151.662991927067	593
5	1708	151.662991927067	594
5	1708	151.662991927067	595
5	1708	151.662991927067	596
5	1708	151.662991927067	597
5	1731	153.106086993233	598
5	1731	153.106086993233	599
5	1731	153.106086993233	600
5	1731	153.106086993233	601
5	1740	155.106086993233	602
5	1740	155.106086993233	603
5	1740	155.106086993233	604
5	1740	155.106086993233	605
5	1749	156.106086993233	606
5	1749	156.106086993233	607
5	1749	156.106086993233	608
5	1749	156.106086993233	609
5	1755	156.162991927067	610
5	1755	156.162991927067	611
5	1755	156.162991927067	612
5	1755	156.162991927067	613
5	1755	156.162991927067	614
5	1778	157.106086993233	615
5	1778	157.106086993233	616
5	1778	157.106086993233	617
5	1778	157.106086993233	618
5	1787	159.106086993233	619
5	1787	159.106086993233	620
5	1787	159.106086993233	621
5	1787	159.106086993233	622
5	1801	160.606086993233	623
5	1801	160.606086993233	624
5	1801	160.606086993233	625
5	1801	160.606086993233	626
5	1807	160.662991927067	627
5	1807	160.662991927067	628
5	1807	160.662991927067	629
5	1807	160.662991927067	630
5	1807	160.662991927067	631
5	1826	161.106086993233	632
5	1826	161.106086993233	633
5	1826	161.106086993233	634
5	1826	161.106086993233	635
5	1839	163.106086993233	636
5	1839	163.106086993233	637
5	1839	163.106086993233	638
5	1839	163.106086993233	639
5	1848	165.106086993233	640
5	1848	165.106086993233	641
5	1848	165.106086993233	642
5	1848	165.106086993233	643
5	1849	165.106086993233	644
5	1849	165.106086993233	645
5	1849	165.106086993233	646
5	1849	165.106086993233	647
5	1860	165.162991927067	648
5	1860	165.162991927067	649
5	1860	165.162991927067	650
5	1860	165.162991927067	651
5	1860	165.162991927067	652
5	1886	167.106086993233	653
5	1886	167.106086993233	654
5	1886	167.106086993233	655
5	1886	167.106086993233	656
5	1895	169.106086993233	657
5	1895	169.106086993233	658
5	1895	169.106086993233	659
5	1895	169.106086993233	660
5	1904	169.606086993233	661
5	1904	169.606086993233	662
5	1904	169.606086993233	663
5	1904	169.606086993233	664
5	1910	169.662991927067	665
5	1910	169.662991927067	666
5	1910	169.662991927067	667
5	1910	169.662991927067	668
5	1910	169.662991927067	669
5	1938	171.106086993233	670
5	1938	171.106086993233	671
5	1938	171.106086993233	672
5	1938	171.106086993233	673
5	1947	173.106086993233	674
5	1947	173.106086993233	675
5	1947	173.106086993233	676
5	1947	173.106086993233	677
5	1956	174.106086993233	678
5	1956	174.106086993233	679
5	1956	174.106086993233	680
5	1956	174.106086993233	681
5	1962	174.162991927067	682
5	1962	174.162991927067	683
5	1962	174.162991927067	684
5	1962	174.162991927067	685
5	1962	174.162991927067	686
5	1985	175.106086993233	687
5	1985	175.106086993233	688
5	1985	175.106086993233	689
5	1985	175.106086993233	690
5	1994	177.106086993233	691
5	1994	177.106086993233	692
5	1994	177.106086993233	693
5	1994	177.106086993233	694
5	2003	178.606086993233	695
5	2003	178.606086993233	696
5	2003	178.606086993233	697
5	2003	178.606086993233	698
5	2009	178.662991927067	699
5	2009	178.662991927067	700
5	2009	178.662991927067	701
5	2009	178.662991927067	702
5	2009	178.662991927067	703
5	2028	179.106086993233	704
5	2028	179.106086993233	705
5	2028	179.106086993233	706
5	2028	179.106086993233	707
5	2046	181.106086993233	708
5	2046	181.106086993233	709
5	2046	181.106086993233	710
5	2046	181.106086993233	711
5	2055	183.106086993233	712
5	2055	183.106086993233	713
5	2055	183.106086993233	714
5	2055	183.106086993233	715
5	2056	183.106086993233	716
5	2056	183.106086993233	717
5	2056	183.106086993233	718
5	2056	183.106086993233	719
5	2067	183.162991927067	720
5	2067	183.162991927067	721
5	2067	183.162991927067	722
5	2067	183.162991927067	723
5	2067	183.162991927067	724
5	2093	185.106086993233	725
5	2093	185.106086993233	726
5	2093	185.106086993233	727
5	2093	185.106086993233	728
5	2102	187.106086993233	729
5	2102	187.106086993233	730
5	2102	187.106086993233	731
5	2102	187.106086993233	732
5	2111	187.606086993233	733
5	2111	187.606086993233	734
5	2111	187.606086993233	735
5	2111	187.606086993233	736
5	2117	187.662991927067	737
5	2117	187.662991927067	738
5	2117	187.662991927067	739
5	2117	187.662991927067	740
5	2117	187.662991927067	741
5	2140	189.106086993233	742
5	2140	189.106086993233	743
5	2140	189.106086993233	744
5	2140	189.106086993233	745
5	2154	191.106086993233	746
5	2154	191.106086993233	747
5	2154	191.106086993233	748
5	2154	191.106086993233	749
5	2163	192.106086993233	750
5	2163	192.106086993233	751
5	2163	192.106086993233	752
5	2163	192.106086993233	753
5	2169	192.162991927067	754
5	2169	192.162991927067	755
5	2169	192.162991927067	756
5	2169	192.162991927067	757
5	2169	192.162991927067	758
5	2192	193.106086993233	759
5	2192	193.106086993233	760
5	2192	193.106086993233	761
5	2192	193.106086993233	762
5	2201	195.106086993233	763
5	2201	195.106086993233	764
5	2201	195.106086993233	765
5	2201	195.106086993233	766
5	2210	196.606086993233	767
5	2210	196.606086993233	768
5	2210	196.606086993233	769
5	2210	196.606086993233	770
5	2216	196.662991927067	771
5	2216	196.662991927067	772
5	2216	196.662991927067	773
5	2216	196.662991927067	774
5	2216	196.662991927067	775
5	2235	197.106086993233	776
5	2235	197.106086993233	777
5	2235	197.106086993233	778
5	2235	197.106086993233	779
5	2248	199.106086993233	780
5	2248	199.106086993233	781
5	2248	199.106086993233	782
5	2248	199.106086993233	783
5	2262	201.106086993233	784
5	2262	201.106086993233	785
5	2262	201.106086993233	786
5	2262	201.106086993233	787
5	2263	201.106086993233	788
5	2263	201.106086993233	789
5	2263	201.106086993233	790
5	2263	201.106086993233	791
5	2274	201.162991927067	792
5	2274	201.162991927067	793
5	2274	201.162991927067	794
5	2274	201.162991927067	795
5	2274	201.162991927067	796
5	2300	203.106086993233	797
5	2300	203.106086993233	798
5	2300	203.106086993233	799
5	2300	203.106086993233	800
5	2309	205.106086993233	801
5	2309	205.106086993233	802
5	2309	205.106086993233	803
5	2309	205.106086993233	804
5	2318	205.606086993233	805
5	2318	205.606086993233	806
5	2318	205.606086993233	807
5	2318	205.606086993233	808
5	2324	205.662991927067	809
5	2324	205.662991927067	810
5	2324	205.662991927067	811
5	2324	205.662991927067	812
5	2324	205.662991927067	813
5	2347	207.106086993233	814
5	2347	207.106086993233	815
5	2347	207.106086993233	816
5	2347	207.106086993233	817
5	2356	209.106086993233	818
5	2356	209.106086993233	819
5	2356	209.106086993233	820
5	2356	209.106086993233	821
5	2370	210.106086993233	822
5	2370	210.106086993233	823
5	2370	210.106086993233	824
5	2370	210.106086993233	825
5	2376	210.162991927067	826
5	2376	210.162991927067	827
5	2376	210.162991927067	828
5	2376	210.162991927067	829
5	2376	210.162991927067	830
5	2399	211.106086993233	831
5	2399	211.106086993233	832
5	2399	211.106086993233	833
5	2399	211.106086993233	834
5	2408	213.106086993233	835
5	2408	213.106086993233	836
5	2408	213.106086993233	837
5	2408	213.106086993233	838
5	2417	214.606086993233	839
5	2417	214.606086993233	840
5	2417	214.606086993233	841
5	2417	214.606086993233	842
5	2423	214.662991927067	843
5	2423	214.662991927067	844
5	2423	214.662991927067	845
5	2423	214.662991927067	846
5	2423	214.662991927067	847
5	2442	215.106086993233	848
5	2442	215.106086993233	849
5	2442	215.106086993233	850
5	2442	215.106086993233	851
5	2455	217.106086993233	852
5	2455	217.106086993233	853
5	2455	217.106086993233	854
5	2455	217.106086993233	855
5	2464	219.106086993233	856
5	2464	219.106086993233	857
5	2464	219.106086993233	858
5	2464	219.106086993233	859
5	2465	219.106086993233	860
5	2465	219.106086993233	861
5	2465	219.106086993233	862
5	2465	219.106086993233	863
5	2476	219.162991927067	864
5	2476	219.162991927067	865
5	2476	219.162991927067	866
5	2476	219.162991927067	867
5	2476	219.162991927067	868
5	2507	221.106086993233	869
5	2507	221.106086993233	870
5	2507	221.106086993233	871
5	2507	221.106086993233	872
5	2516	223.106086993233	873
5	2516	223.106086993233	874
5	2516	223.106086993233	875
5	2516	223.106086993233	876
5	2525	223.606086993233	877
5	2525	223.606086993233	878
5	2525	223.606086993233	879
5	2525	223.606086993233	880
5	2531	223.662991927067	881
5	2531	223.662991927067	882
5	2531	223.662991927067	883
5	2531	223.662991927067	884
5	2531	223.662991927067	885
5	2554	225.106086993233	886
5	2554	225.106086993233	887
5	2554	225.106086993233	888
5	2554	225.106086993233	889
5	2563	227.106086993233	890
5	2563	227.106086993233	891
5	2563	227.106086993233	892
5	2563	227.106086993233	893
5	2572	228.106086993233	894
5	2572	228.106086993233	895
5	2572	228.106086993233	896
5	2572	228.106086993233	897
5	2578	228.162991927067	898
5	2578	228.162991927067	899
5	2578	228.162991927067	900
5	2578	228.162991927067	901
5	2578	228.162991927067	902
5	2601	229.106086993233	903
5	2601	229.106086993233	904
5	2601	229.106086993233	905
5	2601	229.106086993233	906
5	2615	231.106086993233	907
5	2615	231.106086993233	908
5	2615	231.106086993233	909
5	2615	231.106086993233	910
5	2624	232.606086993233	911
5	2624	232.606086993233	912
5	2624	232.606086993233	913
5	2624	232.606086993233	914
5	2630	232.662991927067	915
5	2630	232.662991927067	916
5	2630	232.662991927067	917
5	2630	232.662991927067	918
5	2630	232.662991927067	919
5	2649	233.106086993233	920
5	2649	233.106086993233	921
5	2649	233.106086993233	922
5	2649	233.106086993233	923
5	2662	235.106086993233	924
5	2662	235.106086993233	925
5	2662	235.106086993233	926
5	2662	235.106086993233	927
5	2671	237.106086993233	928
5	2671	237.106086993233	929
5	2671	237.106086993233	930
5	2671	237.106086993233	931
5	2672	237.106086993233	932
5	2672	237.106086993233	933
5	2672	237.106086993233	934
5	2672	237.106086993233	935
5	2683	237.162991927067	936
5	2683	237.162991927067	937
5	2683	237.162991927067	938
5	2683	237.162991927067	939
5	2683	237.162991927067	940
5	2709	239.106086993233	941
5	2709	239.106086993233	942
5	2709	239.106086993233	943
5	2709	239.106086993233	944
5	2723	241.106086993233	945
5	2723	241.106086993233	946
5	2723	241.106086993233	947
5	2723	241.106086993233	948
5	2732	241.606086993233	949
5	2732	241.606086993233	950
5	2732	241.606086993233	951
5	2732	241.606086993233	952
5	2738	241.662991927067	953
5	2738	241.662991927067	954
5	2738	241.662991927067	955
5	2738	241.662991927067	956
5	2738	241.662991927067	957
5	2761	243.106086993233	958
5	2761	243.106086993233	959
5	2761	243.106086993233	960
5	2761	243.106086993233	961
5	2770	245.106086993233	962
5	2770	245.106086993233	963
5	2770	245.106086993233	964
5	2770	245.106086993233	965
5	2779	246.106086993233	966
5	2779	246.106086993233	967
5	2779	246.106086993233	968
5	2779	246.106086993233	969
5	2785	246.162991927067	970
5	2785	246.162991927067	971
5	2785	246.162991927067	972
5	2785	246.162991927067	973
5	2785	246.162991927067	974
5	2808	247.106086993233	975
5	2808	247.106086993233	976
5	2808	247.106086993233	977
5	2808	247.106086993233	978
5	2817	249.106086993233	979
5	2817	249.106086993233	980
5	2817	249.106086993233	981
5	2817	249.106086993233	982
5	2831	250.606086993233	983
5	2831	250.606086993233	984
5	2831	250.606086993233	985
5	2831	250.606086993233	986
5	2837	250.662991927067	987
5	2837	250.662991927067	988
5	2837	250.662991927067	989
5	2837	250.662991927067	990
5	2837	250.662991927067	991
5	2856	251.106086993233	992
5	2856	251.106086993233	993
5	2856	251.106086993233	994
5	2856	251.106086993233	995
5	2869	253.106086993233	996
5	2869	253.106086993233	997
5	2869	253.106086993233	998
5	2869	253.106086993233	999
5	2878	255.106086993233	1000
5	2878	255.106086993233	1001
5	2878	255.106086993233	1002
5	2878	255.106086993233	1003
5	2879	255.106086993233	1004
5	2879	255.106086993233	1005
5	2879	255.106086993233	1006
5	2879	255.106086993233	1007
5	2890	255.162991927067	1008
5	2890	255.162991927067	1009
5	2890	255.162991927067	1010
5	2890	255.162991927067	1011
5	2890	255.162991927067	1012
5	2916	257.106086993233	1013
5	2916	257.106086993233	1014
5	2916	257.106086993233	1015
5	2916	257.106086993233	1016
5	2925	259.106086993233	1017
5	2925	259.106086993233	1018
5	2925	259.106086993233	1019
5	2925	259.106086993233	1020
5	2934	259.606086993233	1021
5	2934	259.606086993233	1022
5	2934	259.606086993233	1023
5	2934	259.606086993233	1024
5	2940	259.662991927067	1025
5	2940	259.662991927067	1026
5	2940	259.662991927067	1027
5	2940	259.662991927067	1028
5	2940	259.662991927067	1029
5	2968	261.106086993233	1030
5	2968	261.106086993233	1031
5	2968	261.106086993233	1032
5	2968	261.106086993233	1033
5	2977	263.106086993233	1034
5	2977	263.106086993233	1035
5	2977	263.106086993233	1036
5	2977	263.106086993233	1037
5	2986	264.106086993233	1038
5	2986	264.106086993233	1039
5	2986	264.106086993233	1040
5	2986	264.106086993233	1041
5	2992	264.162991927067	1042
5	2992	264.162991927067	1043
5	2992	264.162991927067	1044
5	2992	264.162991927067	1045
5	2992	264.162991927067	1046
5	3015	265.106086993233	1047
5	3015	265.106086993233	1048
5	3015	265.106086993233	1049
5	3015	265.106086993233	1050
5	3024	267.106086993233	1051
5	3024	267.106086993233	1052
5	3024	267.106086993233	1053
5	3024	267.106086993233	1054
5	3033	268.606086993233	1055
5	3033	268.606086993233	1056
5	3033	268.606086993233	1057
5	3033	268.606086993233	1058
5	3039	268.662991927067	1059
5	3039	268.662991927067	1060
5	3039	268.662991927067	1061
5	3039	268.662991927067	1062
5	3039	268.662991927067	1063
5	3058	269.106086993233	1064
5	3058	269.106086993233	1065
5	3058	269.106086993233	1066
5	3058	269.106086993233	1067
5	3076	271.106086993233	1068
5	3076	271.106086993233	1069
5	3076	271.106086993233	1070
5	3076	271.106086993233	1071
5	3085	273.106086993233	1072
5	3085	273.106086993233	1073
5	3085	273.106086993233	1074
5	3085	273.106086993233	1075
5	3086	273.106086993233	1076
5	3086	273.106086993233	1077
5	3086	273.106086993233	1078
5	3086	273.106086993233	1079
5	3097	273.162991927067	1080
5	3097	273.162991927067	1081
5	3097	273.162991927067	1082
5	3097	273.162991927067	1083
5	3097	273.162991927067	1084
5	3123	275.106086993233	1085
5	3123	275.106086993233	1086
5	3123	275.106086993233	1087
5	3123	275.106086993233	1088
5	3132	277.106086993233	1089
5	3132	277.106086993233	1090
5	3132	277.106086993233	1091
5	3132	277.106086993233	1092
5	3141	277.606086993233	1093
5	3141	277.606086993233	1094
5	3141	277.606086993233	1095
5	3141	277.606086993233	1096
5	3147	277.662991927067	1097
5	3147	277.662991927067	1098
5	3147	277.662991927067	1099
5	3147	277.662991927067	1100
5	3147	277.662991927067	1101
5	3170	279.106086993233	1102
5	3170	279.106086993233	1103
5	3170	279.106086993233	1104
5	3170	279.106086993233	1105
5	3184	281.106086993233	1106
5	3184	281.106086993233	1107
5	3184	281.106086993233	1108
5	3184	281.106086993233	1109
5	3193	282.106086993233	1110
5	3193	282.106086993233	1111
5	3193	282.106086993233	1112
5	3193	282.106086993233	1113
5	3199	282.162991927067	1114
5	3199	282.162991927067	1115
5	3199	282.162991927067	1116
5	3199	282.162991927067	1117
5	3199	282.162991927067	1118
5	3222	283.106086993233	1119
5	3222	283.106086993233	1120
5	3222	283.106086993233	1121
5	3222	283.106086993233	1122
5	3231	285.106086993233	1123
5	3231	285.106086993233	1124
5	3231	285.106086993233	1125
5	3231	285.106086993233	1126
5	3240	286.606086993233	1127
5	3240	286.606086993233	1128
5	3240	286.606086993233	1129
5	3240	286.606086993233	1130
5	3246	286.662991927067	1131
5	3246	286.662991927067	1132
5	3246	286.662991927067	1133
5	3246	286.662991927067	1134
5	3246	286.662991927067	1135
5	3265	287.106086993233	1136
5	3265	287.106086993233	1137
5	3265	287.106086993233	1138
5	3265	287.106086993233	1139
5	3278	289.106086993233	1140
5	3278	289.106086993233	1141
5	3278	289.106086993233	1142
5	3278	289.106086993233	1143
5	3292	291.106086993233	1144
5	3292	291.106086993233	1145
5	3292	291.106086993233	1146
5	3292	291.106086993233	1147
5	3293	291.106086993233	1148
5	3293	291.106086993233	1149
5	3293	291.106086993233	1150
5	3293	291.106086993233	1151
5	3304	291.162991927067	1152
5	3304	291.162991927067	1153
5	3304	291.162991927067	1154
5	3304	291.162991927067	1155
5	3304	291.162991927067	1156
5	3330	293.106086993233	1157
5	3330	293.106086993233	1158
5	3330	293.106086993233	1159
5	3330	293.106086993233	1160
5	3339	295.106086993233	1161
5	3339	295.106086993233	1162
5	3339	295.106086993233	1163
5	3339	295.106086993233	1164
5	3348	295.606086993233	1165
5	3348	295.606086993233	1166
5	3348	295.606086993233	1167
5	3348	295.606086993233	1168
5	3354	295.662991927067	1169
5	3354	295.662991927067	1170
5	3354	295.662991927067	1171
5	3354	295.662991927067	1172
5	3354	295.662991927067	1173
5	3377	297.106086993233	1174
5	3377	297.106086993233	1175
5	3377	297.106086993233	1176
5	3377	297.106086993233	1177
5	3386	299.106086993233	1178
5	3386	299.106086993233	1179
5	3386	299.106086993233	1180
5	3386	299.106086993233	1181
5	3400	300.106086993233	1182
5	3400	300.106086993233	1183
5	3400	300.106086993233	1184
5	3400	300.106086993233	1185
5	3406	300.162991927067	1186
5	3406	300.162991927067	1187
5	3406	300.162991927067	1188
5	3406	300.162991927067	1189
5	3406	300.162991927067	1190
5	3429	301.106086993233	1191
5	3429	301.106086993233	1192
5	3429	301.106086993233	1193
5	3429	301.106086993233	1194
5	3439	303.106086993233	1195
5	3439	303.106086993233	1196
5	3439	303.106086993233	1197
5	3439	303.106086993233	1198
5	3448	304.606086993233	1199
5	3448	304.606086993233	1200
5	3448	304.606086993233	1201
5	3448	304.606086993233	1202
5	3454	304.662991927067	1203
5	3454	304.662991927067	1204
5	3454	304.662991927067	1205
5	3454	304.662991927067	1206
5	3454	304.662991927067	1207
5	3473	305.106086993233	1208
5	3473	305.106086993233	1209
5	3473	305.106086993233	1210
5	3473	305.106086993233	1211
5	3487	307.106086993233	1212
5	3487	307.106086993233	1213
5	3487	307.106086993233	1214
5	3487	307.106086993233	1215
5	3497	309.106086993233	1216
5	3497	309.106086993233	1217
5	3497	309.106086993233	1218
5	3497	309.106086993233	1219
5	3498	309.106086993233	1220
5	3498	309.106086993233	1221
5	3498	309.106086993233	1222
5	3498	309.106086993233	1223
5	3509	309.162991927067	1224
5	3509	309.162991927067	1225
5	3509	309.162991927067	1226
5	3509	309.162991927067	1227
5	3509	309.162991927067	1228
5	3539	311.106086993233	1229
5	3539	311.106086993233	1230
5	3539	311.106086993233	1231
5	3539	311.106086993233	1232
5	3549	313.106086993233	1233
5	3549	313.106086993233	1234
5	3549	313.106086993233	1235
5	3549	313.106086993233	1236
5	3557	313.606086993233	1237
5	3557	313.606086993233	1238
5	3557	313.606086993233	1239
5	3557	313.606086993233	1240
5	3563	313.662991927067	1241
5	3563	313.662991927067	1242
5	3563	313.662991927067	1243
5	3563	313.662991927067	1244
5	3563	313.662991927067	1245
5	3587	315.106086993233	1246
5	3587	315.106086993233	1247
5	3587	315.106086993233	1248
5	3587	315.106086993233	1249
5	3597	317.106086993233	1250
5	3597	317.106086993233	1251
5	3597	317.106086993233	1252
5	3597	317.106086993233	1253
5	3606	318.106086993233	1254
5	3606	318.106086993233	1255
5	3606	318.106086993233	1256
5	3606	318.106086993233	1257
5	3612	318.162991927067	1258
5	3612	318.162991927067	1259
5	3612	318.162991927067	1260
5	3612	318.162991927067	1261
5	3612	318.162991927067	1262
5	3635	319.106086993233	1263
5	3635	319.106086993233	1264
5	3635	319.106086993233	1265
5	3635	319.106086993233	1266
5	3649	321.106086993233	1267
5	3649	321.106086993233	1268
5	3649	321.106086993233	1269
5	3649	321.106086993233	1270
5	3658	322.606086993233	1271
5	3658	322.606086993233	1272
5	3658	322.606086993233	1273
5	3658	322.606086993233	1274
5	3664	322.662991927067	1275
5	3664	322.662991927067	1276
5	3664	322.662991927067	1277
5	3664	322.662991927067	1278
5	3664	322.662991927067	1279
5	3683	323.106086993233	1280
5	3683	323.106086993233	1281
5	3683	323.106086993233	1282
5	3683	323.106086993233	1283
5	3696	325.106086993233	1284
5	3696	325.106086993233	1285
5	3696	325.106086993233	1286
5	3696	325.106086993233	1287
5	3705	327.106086993233	1288
5	3705	327.106086993233	1289
5	3705	327.106086993233	1290
5	3705	327.106086993233	1291
5	3706	327.106086993233	1292
5	3706	327.106086993233	1293
5	3706	327.106086993233	1294
5	3706	327.106086993233	1295
5	3717	327.162991927067	1296
5	3717	327.162991927067	1297
5	3717	327.162991927067	1298
5	3717	327.162991927067	1299
5	3717	327.162991927067	1300
5	3743	329.106086993233	1301
5	3743	329.106086993233	1302
5	3743	329.106086993233	1303
5	3743	329.106086993233	1304
5	3756	331.106086993233	1305
5	3756	331.106086993233	1306
5	3756	331.106086993233	1307
5	3756	331.106086993233	1308
5	3765	331.606086993233	1309
5	3765	331.606086993233	1310
5	3765	331.606086993233	1311
5	3765	331.606086993233	1312
5	3771	331.662991927067	1313
5	3771	331.662991927067	1314
5	3771	331.662991927067	1315
5	3771	331.662991927067	1316
5	3771	331.662991927067	1317
5	3795	333.106086993233	1318
5	3795	333.106086993233	1319
5	3795	333.106086993233	1320
5	3795	333.106086993233	1321
5	3804	335.106086993233	1322
5	3804	335.106086993233	1323
5	3804	335.106086993233	1324
5	3804	335.106086993233	1325
5	3813	336.106086993233	1326
5	3813	336.106086993233	1327
5	3813	336.106086993233	1328
5	3813	336.106086993233	1329
5	3819	336.162991927067	1330
5	3819	336.162991927067	1331
5	3819	336.162991927067	1332
5	3819	336.162991927067	1333
5	3819	336.162991927067	1334
5	3842	337.106086993233	1335
5	3842	337.106086993233	1336
5	3842	337.106086993233	1337
5	3842	337.106086993233	1338
5	3851	339.106086993233	1339
5	3851	339.106086993233	1340
5	3851	339.106086993233	1341
5	3851	339.106086993233	1342
5	3864	340.606086993233	1343
5	3864	340.606086993233	1344
5	3864	340.606086993233	1345
5	3864	340.606086993233	1346
5	3870	340.662991927067	1347
5	3870	340.662991927067	1348
5	3870	340.662991927067	1349
5	3870	340.662991927067	1350
5	3870	340.662991927067	1351
5	3889	341.106086993233	1352
5	3889	341.106086993233	1353
5	3889	341.106086993233	1354
5	3889	341.106086993233	1355
5	3903	343.106086993233	1356
5	3903	343.106086993233	1357
5	3903	343.106086993233	1358
5	3903	343.106086993233	1359
5	3912	345.106086993233	1360
5	3912	345.106086993233	1361
5	3912	345.106086993233	1362
5	3912	345.106086993233	1363
5	3913	345.106086993233	1364
5	3913	345.106086993233	1365
5	3913	345.106086993233	1366
5	3913	345.106086993233	1367
5	3924	345.162991927067	1368
5	3924	345.162991927067	1369
5	3924	345.162991927067	1370
5	3924	345.162991927067	1371
5	3924	345.162991927067	1372
5	3950	347.106086993233	1373
5	3950	347.106086993233	1374
5	3950	347.106086993233	1375
5	3950	347.106086993233	1376
5	3959	349.106086993233	1377
5	3959	349.106086993233	1378
5	3959	349.106086993233	1379
5	3959	349.106086993233	1380
5	3968	349.606086993233	1381
5	3968	349.606086993233	1382
5	3968	349.606086993233	1383
5	3968	349.606086993233	1384
5	3974	349.662991927067	1385
5	3974	349.662991927067	1386
5	3974	349.662991927067	1387
5	3974	349.662991927067	1388
5	3974	349.662991927067	1389
5	4001	351.106086993233	1390
5	4001	351.106086993233	1391
5	4001	351.106086993233	1392
5	4001	351.106086993233	1393
5	4011	353.106086993233	1394
5	4011	353.106086993233	1395
5	4011	353.106086993233	1396
5	4011	353.106086993233	1397
5	4020	354.106086993233	1398
5	4020	354.106086993233	1399
5	4020	354.106086993233	1400
5	4020	354.106086993233	1401
5	4026	354.162991927067	1402
5	4026	354.162991927067	1403
5	4026	354.162991927067	1404
5	4026	354.162991927067	1405
5	4026	354.162991927067	1406
5	4049	355.106086993233	1407
5	4049	355.106086993233	1408
5	4049	355.106086993233	1409
5	4049	355.106086993233	1410
5	4058	357.106086993233	1411
5	4058	357.106086993233	1412
5	4058	357.106086993233	1413
5	4058	357.106086993233	1414
5	4067	358.606086993233	1415
5	4067	358.606086993233	1416
5	4067	358.606086993233	1417
5	4067	358.606086993233	1418
5	4073	358.662991927067	1419
5	4073	358.662991927067	1420
5	4073	358.662991927067	1421
5	4073	358.662991927067	1422
5	4073	358.662991927067	1423
5	4092	359.106086993233	1424
5	4092	359.106086993233	1425
5	4092	359.106086993233	1426
5	4092	359.106086993233	1427
5	4109	361.106086993233	1428
5	4109	361.106086993233	1429
5	4109	361.106086993233	1430
5	4109	361.106086993233	1431
5	4119	363.106086993233	1432
5	4119	363.106086993233	1433
5	4119	363.106086993233	1434
5	4119	363.106086993233	1435
5	4120	363.106086993233	1436
5	4120	363.106086993233	1437
5	4120	363.106086993233	1438
5	4120	363.106086993233	1439
5	4131	363.162991927067	1440
5	4131	363.162991927067	1441
5	4131	363.162991927067	1442
5	4131	363.162991927067	1443
5	4131	363.162991927067	1444
5	4157	365.106086993233	1445
5	4157	365.106086993233	1446
5	4157	365.106086993233	1447
5	4157	365.106086993233	1448
5	4166	367.106086993233	1449
5	4166	367.106086993233	1450
5	4166	367.106086993233	1451
5	4166	367.106086993233	1452
5	4175	367.606086993233	1453
5	4175	367.606086993233	1454
5	4175	367.606086993233	1455
5	4175	367.606086993233	1456
5	4181	367.662991927067	1457
5	4181	367.662991927067	1458
5	4181	367.662991927067	1459
5	4181	367.662991927067	1460
5	4181	367.662991927067	1461
5	4204	369.106086993233	1462
5	4204	369.106086993233	1463
5	4204	369.106086993233	1464
5	4204	369.106086993233	1465
5	4217	371.106086993233	1466
5	4217	371.106086993233	1467
5	4217	371.106086993233	1468
5	4217	371.106086993233	1469
5	4227	372.106086993233	1470
5	4227	372.106086993233	1471
5	4227	372.106086993233	1472
5	4227	372.106086993233	1473
5	4233	372.162991927067	1474
5	4233	372.162991927067	1475
5	4233	372.162991927067	1476
5	4233	372.162991927067	1477
5	4233	372.162991927067	1478
5	4256	373.106086993233	1479
5	4256	373.106086993233	1480
5	4256	373.106086993233	1481
5	4256	373.106086993233	1482
5	4265	375.106086993233	1483
5	4265	375.106086993233	1484
5	4265	375.106086993233	1485
5	4265	375.106086993233	1486
5	4274	376.606086993233	1487
5	4274	376.606086993233	1488
5	4274	376.606086993233	1489
5	4274	376.606086993233	1490
5	4280	376.662991927067	1491
5	4280	376.662991927067	1492
5	4280	376.662991927067	1493
5	4280	376.662991927067	1494
5	4280	376.662991927067	1495
5	4299	377.106086993233	1496
5	4299	377.106086993233	1497
5	4299	377.106086993233	1498
5	4299	377.106086993233	1499
5	4312	379.106086993233	1500
5	4312	379.106086993233	1501
5	4312	379.106086993233	1502
5	4312	379.106086993233	1503
5	4325	381.106086993233	1504
5	4325	381.106086993233	1505
5	4325	381.106086993233	1506
5	4325	381.106086993233	1507
5	4326	381.106086993233	1508
5	4326	381.106086993233	1509
5	4326	381.106086993233	1510
5	4326	381.106086993233	1511
5	4337	381.162991927067	1512
5	4337	381.162991927067	1513
5	4337	381.162991927067	1514
5	4337	381.162991927067	1515
5	4337	381.162991927067	1516
5	4364	383.106086993233	1517
5	4364	383.106086993233	1518
5	4364	383.106086993233	1519
5	4364	383.106086993233	1520
5	4373	385.106086993233	1521
5	4373	385.106086993233	1522
5	4373	385.106086993233	1523
5	4373	385.106086993233	1524
5	4382	385.606086993233	1525
5	4382	385.606086993233	1526
5	4382	385.606086993233	1527
5	4382	385.606086993233	1528
5	4388	385.662991927067	1529
5	4388	385.662991927067	1530
5	4388	385.662991927067	1531
5	4388	385.662991927067	1532
5	4388	385.662991927067	1533
5	4411	387.106086993233	1534
5	4411	387.106086993233	1535
5	4411	387.106086993233	1536
5	4411	387.106086993233	1537
5	4420	389.106086993233	1538
5	4420	389.106086993233	1539
5	4420	389.106086993233	1540
5	4420	389.106086993233	1541
5	4433	390.106086993233	1542
5	4433	390.106086993233	1543
5	4433	390.106086993233	1544
5	4433	390.106086993233	1545
5	4439	390.162991927067	1546
5	4439	390.162991927067	1547
5	4439	390.162991927067	1548
5	4439	390.162991927067	1549
5	4439	390.162991927067	1550
5	4462	391.106086993233	1551
5	4462	391.106086993233	1552
5	4462	391.106086993233	1553
5	4462	391.106086993233	1554
5	4472	393.106086993233	1555
5	4472	393.106086993233	1556
5	4472	393.106086993233	1557
5	4472	393.106086993233	1558
5	4481	394.606086993233	1559
5	4481	394.606086993233	1560
5	4481	394.606086993233	1561
5	4481	394.606086993233	1562
5	4487	394.662991927067	1563
5	4487	394.662991927067	1564
5	4487	394.662991927067	1565
5	4487	394.662991927067	1566
5	4487	394.662991927067	1567
5	4506	395.106086993233	1568
5	4506	395.106086993233	1569
5	4506	395.106086993233	1570
5	4506	395.106086993233	1571
5	4519	397.106086993233	1572
5	4519	397.106086993233	1573
5	4519	397.106086993233	1574
5	4519	397.106086993233	1575
5	4528	399.106086993233	1576
5	4528	399.106086993233	1577
5	4528	399.106086993233	1578
5	4528	399.106086993233	1579
5	4529	399.106086993233	1580
5	4529	399.106086993233	1581
5	4529	399.106086993233	1582
5	4529	399.106086993233	1583
5	4540	399.162991927067	1584
5	4540	399.162991927067	1585
5	4540	399.162991927067	1586
5	4540	399.162991927067	1587
5	4540	399.162991927067	1588
5	4570	401.106086993233	1589
5	4570	401.106086993233	1590
5	4570	401.106086993233	1591
5	4570	401.106086993233	1592
5	4580	403.106086993233	1593
5	4580	403.106086993233	1594
5	4580	403.106086993233	1595
5	4580	403.106086993233	1596
5	4589	403.606086993233	1597
5	4589	403.606086993233	1598
5	4589	403.606086993233	1599
5	4589	403.606086993233	1600
5	4595	403.662991927067	1601
5	4595	403.662991927067	1602
5	4595	403.662991927067	1603
5	4595	403.662991927067	1604
5	4595	403.662991927067	1605
5	4618	405.106086993233	1606
5	4618	405.106086993233	1607
5	4618	405.106086993233	1608
5	4618	405.106086993233	1609
5	4627	407.106086993233	1610
5	4627	407.106086993233	1611
5	4627	407.106086993233	1612
5	4627	407.106086993233	1613
5	4636	408.106086993233	1614
5	4636	408.106086993233	1615
5	4636	408.106086993233	1616
5	4636	408.106086993233	1617
5	4642	408.162991927067	1618
5	4642	408.162991927067	1619
5	4642	408.162991927067	1620
5	4642	408.162991927067	1621
5	4642	408.162991927067	1622
5	4665	409.106086993233	1623
5	4665	409.106086993233	1624
5	4665	409.106086993233	1625
5	4665	409.106086993233	1626
5	4678	411.106086993233	1627
5	4678	411.106086993233	1628
5	4678	411.106086993233	1629
5	4678	411.106086993233	1630
5	4688	412.606086993233	1631
5	4688	412.606086993233	1632
5	4688	412.606086993233	1633
5	4688	412.606086993233	1634
5	4694	412.662991927067	1635
5	4694	412.662991927067	1636
5	4694	412.662991927067	1637
5	4694	412.662991927067	1638
5	4694	412.662991927067	1639
5	4713	413.106086993233	1640
5	4713	413.106086993233	1641
5	4713	413.106086993233	1642
5	4713	413.106086993233	1643
5	4726	415.106086993233	1644
5	4726	415.106086993233	1645
5	4726	415.106086993233	1646
5	4726	415.106086993233	1647
5	4735	417.106086993233	1648
5	4735	417.106086993233	1649
5	4735	417.106086993233	1650
5	4735	417.106086993233	1651
5	4736	417.106086993233	1652
5	4736	417.106086993233	1653
5	4736	417.106086993233	1654
5	4736	417.106086993233	1655
5	4747	417.162991927067	1656
5	4747	417.162991927067	1657
5	4747	417.162991927067	1658
5	4747	417.162991927067	1659
5	4747	417.162991927067	1660
5	4773	419.106086993233	1661
5	4773	419.106086993233	1662
5	4773	419.106086993233	1663
5	4773	419.106086993233	1664
5	4786	421.106086993233	1665
5	4786	421.106086993233	1666
5	4786	421.106086993233	1667
5	4786	421.106086993233	1668
5	4795	421.606086993233	1669
5	4795	421.606086993233	1670
5	4795	421.606086993233	1671
5	4795	421.606086993233	1672
5	4801	421.662991927067	1673
5	4801	421.662991927067	1674
5	4801	421.662991927067	1675
5	4801	421.662991927067	1676
5	4801	421.662991927067	1677
5	4825	423.106086993233	1678
5	4825	423.106086993233	1679
5	4825	423.106086993233	1680
5	4825	423.106086993233	1681
5	4834	425.106086993233	1682
5	4834	425.106086993233	1683
5	4834	425.106086993233	1684
5	4834	425.106086993233	1685
5	4843	426.106086993233	1686
5	4843	426.106086993233	1687
5	4843	426.106086993233	1688
5	4843	426.106086993233	1689
5	4849	426.162991927067	1690
5	4849	426.162991927067	1691
5	4849	426.162991927067	1692
5	4849	426.162991927067	1693
5	4849	426.162991927067	1694
5	4872	427.106086993233	1695
5	4872	427.106086993233	1696
5	4872	427.106086993233	1697
5	4872	427.106086993233	1698
5	4881	429.106086993233	1699
5	4881	429.106086993233	1700
5	4881	429.106086993233	1701
5	4881	429.106086993233	1702
5	4894	430.606086993233	1703
5	4894	430.606086993233	1704
5	4894	430.606086993233	1705
5	4894	430.606086993233	1706
5	4900	430.662991927067	1707
5	4900	430.662991927067	1708
5	4900	430.662991927067	1709
5	4900	430.662991927067	1710
5	4900	430.662991927067	1711
5	4919	431.106086993233	1712
5	4919	431.106086993233	1713
5	4919	431.106086993233	1714
5	4919	431.106086993233	1715
5	4933	433.106086993233	1716
5	4933	433.106086993233	1717
5	4933	433.106086993233	1718
5	4933	433.106086993233	1719
5	4942	435.106086993233	1720
5	4942	435.106086993233	1721
5	4942	435.106086993233	1722
5	4942	435.106086993233	1723
5	4943	435.106086993233	1724
5	4943	435.106086993233	1725
5	4943	435.106086993233	1726
5	4943	435.106086993233	1727
5	4954	435.162991927067	1728
5	4954	435.162991927067	1729
5	4954	435.162991927067	1730
5	4954	435.162991927067	1731
5	4954	435.162991927067	1732
5	4980	437.106086993233	1733
5	4980	437.106086993233	1734
5	4980	437.106086993233	1735
5	4980	437.106086993233	1736
5	4989	439.106086993233	1737
5	4989	439.106086993233	1738
5	4989	439.106086993233	1739
5	4989	439.106086993233	1740
5	4998	439.606086993233	1741
5	4998	439.606086993233	1742
5	4998	439.606086993233	1743
5	4998	439.606086993233	1744
5	5004	439.662991927067	1745
5	5004	439.662991927067	1746
5	5004	439.662991927067	1747
5	5004	439.662991927067	1748
5	5004	439.662991927067	1749
5	5031	441.106086993233	1750
5	5031	441.106086993233	1751
5	5031	441.106086993233	1752
5	5031	441.106086993233	1753
5	5041	443.106086993233	1754
5	5041	443.106086993233	1755
5	5041	443.106086993233	1756
5	5041	443.106086993233	1757
5	5050	444.106086993233	1758
5	5050	444.106086993233	1759
5	5050	444.106086993233	1760
5	5050	444.106086993233	1761
5	5056	444.162991927067	1762
5	5056	444.162991927067	1763
5	5056	444.162991927067	1764
5	5056	444.162991927067	1765
5	5056	444.162991927067	1766
5	5079	445.106086993233	1767
5	5079	445.106086993233	1768
5	5079	445.106086993233	1769
5	5079	445.106086993233	1770
5	5088	447.106086993233	1771
5	5088	447.106086993233	1772
5	5088	447.106086993233	1773
5	5088	447.106086993233	1774
5	5097	448.606086993233	1775
5	5097	448.606086993233	1776
5	5097	448.606086993233	1777
5	5097	448.606086993233	1778
5	5103	448.662991927067	1779
5	5103	448.662991927067	1780
5	5103	448.662991927067	1781
5	5103	448.662991927067	1782
5	5103	448.662991927067	1783
5	5122	449.106086993233	1784
5	5122	449.106086993233	1785
5	5122	449.106086993233	1786
5	5122	449.106086993233	1787
5	5139	451.106086993233	1788
5	5139	451.106086993233	1789
5	5139	451.106086993233	1790
5	5139	451.106086993233	1791
5	5149	453.106086993233	1792
5	5149	453.106086993233	1793
5	5149	453.106086993233	1794
5	5149	453.106086993233	1795
5	5150	453.106086993233	1796
5	5150	453.106086993233	1797
5	5150	453.106086993233	1798
5	5150	453.106086993233	1799
5	5161	453.162991927067	1800
5	5161	453.162991927067	1801
5	5161	453.162991927067	1802
5	5161	453.162991927067	1803
5	5161	453.162991927067	1804
5	5187	455.106086993233	1805
5	5187	455.106086993233	1806
5	5187	455.106086993233	1807
5	5187	455.106086993233	1808
5	5196	457.106086993233	1809
5	5196	457.106086993233	1810
5	5196	457.106086993233	1811
5	5196	457.106086993233	1812
5	5205	457.606086993233	1813
5	5205	457.606086993233	1814
5	5205	457.606086993233	1815
5	5205	457.606086993233	1816
5	5211	457.662991927067	1817
5	5211	457.662991927067	1818
5	5211	457.662991927067	1819
5	5211	457.662991927067	1820
5	5211	457.662991927067	1821
5	5234	459.106086993233	1822
5	5234	459.106086993233	1823
5	5234	459.106086993233	1824
5	5234	459.106086993233	1825
5	5247	461.106086993233	1826
5	5247	461.106086993233	1827
5	5247	461.106086993233	1828
5	5247	461.106086993233	1829
5	5257	462.106086993233	1830
5	5257	462.106086993233	1831
5	5257	462.106086993233	1832
5	5257	462.106086993233	1833
5	5263	462.162991927067	1834
5	5263	462.162991927067	1835
5	5263	462.162991927067	1836
5	5263	462.162991927067	1837
5	5263	462.162991927067	1838
5	5286	463.106086993233	1839
5	5286	463.106086993233	1840
5	5286	463.106086993233	1841
5	5286	463.106086993233	1842
5	5295	465.106086993233	1843
5	5295	465.106086993233	1844
5	5295	465.106086993233	1845
5	5295	465.106086993233	1846
5	5304	466.606086993233	1847
5	5304	466.606086993233	1848
5	5304	466.606086993233	1849
5	5304	466.606086993233	1850
5	5310	466.662991927067	1851
5	5310	466.662991927067	1852
5	5310	466.662991927067	1853
5	5310	466.662991927067	1854
5	5310	466.662991927067	1855
5	5329	467.106086993233	1856
5	5329	467.106086993233	1857
5	5329	467.106086993233	1858
5	5329	467.106086993233	1859
5	5342	469.106086993233	1860
5	5342	469.106086993233	1861
5	5342	469.106086993233	1862
5	5342	469.106086993233	1863
5	5355	471.106086993233	1864
5	5355	471.106086993233	1865
5	5355	471.106086993233	1866
5	5355	471.106086993233	1867
5	5356	471.106086993233	1868
5	5356	471.106086993233	1869
5	5356	471.106086993233	1870
5	5356	471.106086993233	1871
5	5367	471.162991927067	1872
5	5367	471.162991927067	1873
5	5367	471.162991927067	1874
5	5367	471.162991927067	1875
5	5367	471.162991927067	1876
5	5394	473.106086993233	1877
5	5394	473.106086993233	1878
5	5394	473.106086993233	1879
5	5394	473.106086993233	1880
5	5403	475.106086993233	1881
5	5403	475.106086993233	1882
5	5403	475.106086993233	1883
5	5403	475.106086993233	1884
5	5412	475.606086993233	1885
5	5412	475.606086993233	1886
5	5412	475.606086993233	1887
5	5412	475.606086993233	1888
5	5418	475.662991927067	1889
5	5418	475.662991927067	1890
5	5418	475.662991927067	1891
5	5418	475.662991927067	1892
5	5418	475.662991927067	1893
5	5441	477.106086993233	1894
5	5441	477.106086993233	1895
5	5441	477.106086993233	1896
5	5441	477.106086993233	1897
5	5450	479.106086993233	1898
5	5450	479.106086993233	1899
5	5450	479.106086993233	1900
5	5450	479.106086993233	1901
5	5463	480.106086993233	1902
5	5463	480.106086993233	1903
5	5463	480.106086993233	1904
5	5463	480.106086993233	1905
5	5469	480.162991927067	1906
5	5469	480.162991927067	1907
5	5469	480.162991927067	1908
5	5469	480.162991927067	1909
5	5469	480.162991927067	1910
5	5492	481.106086993233	1911
5	5492	481.106086993233	1912
5	5492	481.106086993233	1913
5	5492	481.106086993233	1914
5	5502	483.106086993233	1915
5	5502	483.106086993233	1916
5	5502	483.106086993233	1917
5	5502	483.106086993233	1918
5	5511	484.606086993233	1919
5	5511	484.606086993233	1920
5	5511	484.606086993233	1921
5	5511	484.606086993233	1922
5	5517	484.662991927067	1923
5	5517	484.662991927067	1924
5	5517	484.662991927067	1925
5	5517	484.662991927067	1926
5	5517	484.662991927067	1927
5	5536	485.106086993233	1928
5	5536	485.106086993233	1929
5	5536	485.106086993233	1930
5	5536	485.106086993233	1931
5	5549	487.106086993233	1932
5	5549	487.106086993233	1933
5	5549	487.106086993233	1934
5	5549	487.106086993233	1935
5	5558	489.106086993233	1936
5	5558	489.106086993233	1937
5	5558	489.106086993233	1938
5	5558	489.106086993233	1939
5	5559	489.106086993233	1940
5	5559	489.106086993233	1941
5	5559	489.106086993233	1942
5	5559	489.106086993233	1943
5	5570	489.162991927067	1944
5	5570	489.162991927067	1945
5	5570	489.162991927067	1946
5	5570	489.162991927067	1947
5	5570	489.162991927067	1948
5	5600	491.106086993233	1949
5	5600	491.106086993233	1950
5	5600	491.106086993233	1951
5	5600	491.106086993233	1952
5	5610	493.106086993233	1953
5	5610	493.106086993233	1954
5	5610	493.106086993233	1955
5	5610	493.106086993233	1956
5	5619	493.606086993233	1957
5	5619	493.606086993233	1958
5	5619	493.606086993233	1959
5	5619	493.606086993233	1960
5	5625	493.662991927067	1961
5	5625	493.662991927067	1962
5	5625	493.662991927067	1963
5	5625	493.662991927067	1964
5	5625	493.662991927067	1965
5	5648	495.106086993233	1966
5	5648	495.106086993233	1967
5	5648	495.106086993233	1968
5	5648	495.106086993233	1969
5	5657	497.106086993233	1970
5	5657	497.106086993233	1971
5	5657	497.106086993233	1972
5	5657	497.106086993233	1973
5	5666	498.106086993233	1974
5	5666	498.106086993233	1975
5	5666	498.106086993233	1976
5	5666	498.106086993233	1977
5	5672	498.162991927067	1978
5	5672	498.162991927067	1979
5	5672	498.162991927067	1980
5	5672	498.162991927067	1981
5	5672	498.162991927067	1982
5	5695	499.106086993233	1983
5	5695	499.106086993233	1984
5	5695	499.106086993233	1985
5	5695	499.106086993233	1986
5	5708	501.106086993233	1987
5	5708	501.106086993233	1988
5	5708	501.106086993233	1989
5	5708	501.106086993233	1990
5	5718	502.606086993233	1991
5	5718	502.606086993233	1992
5	5718	502.606086993233	1993
5	5718	502.606086993233	1994
5	5724	502.662991927067	1995
5	5724	502.662991927067	1996
5	5724	502.662991927067	1997
5	5724	502.662991927067	1998
5	5724	502.662991927067	1999
5	5743	503.106086993233	2000
5	5743	503.106086993233	2001
5	5743	503.106086993233	2002
5	5743	503.106086993233	2003
5	5756	505.106086993233	2004
5	5756	505.106086993233	2005
5	5756	505.106086993233	2006
5	5756	505.106086993233	2007
5	5765	507.106086993233	2008
5	5765	507.106086993233	2009
5	5765	507.106086993233	2010
5	5765	507.106086993233	2011
5	5766	507.106086993233	2012
5	5766	507.106086993233	2013
5	5766	507.106086993233	2014
5	5766	507.106086993233	2015
5	5777	507.162991927067	2016
5	5777	507.162991927067	2017
5	5777	507.162991927067	2018
5	5777	507.162991927067	2019
5	5777	507.162991927067	2020
5	5803	509.106086993233	2021
5	5803	509.106086993233	2022
5	5803	509.106086993233	2023
5	5803	509.106086993233	2024
5	5816	511.106086993233	2025
5	5816	511.106086993233	2026
5	5816	511.106086993233	2027
5	5816	511.106086993233	2028
5	5825	511.606086993233	2029
5	5825	511.606086993233	2030
5	5825	511.606086993233	2031
5	5825	511.606086993233	2032
5	5831	511.662991927067	2033
5	5831	511.662991927067	2034
5	5831	511.662991927067	2035
5	5831	511.662991927067	2036
5	5831	511.662991927067	2037
5	5855	513.106086993233	2038
5	5855	513.106086993233	2039
5	5855	513.106086993233	2040
5	5855	513.106086993233	2041
5	5864	515.106086993233	2042
5	5864	515.106086993233	2043
5	5864	515.106086993233	2044
5	5864	515.106086993233	2045
5	5873	516.106086993233	2046
5	5873	516.106086993233	2047
5	5873	516.106086993233	2048
5	5873	516.106086993233	2049
5	5879	516.162991927067	2050
5	5879	516.162991927067	2051
5	5879	516.162991927067	2052
5	5879	516.162991927067	2053
5	5879	516.162991927067	2054
5	5902	517.106086993233	2055
5	5902	517.106086993233	2056
5	5902	517.106086993233	2057
5	5902	517.106086993233	2058
5	5911	519.106086993233	2059
5	5911	519.106086993233	2060
5	5911	519.106086993233	2061
5	5911	519.106086993233	2062
5	5924	520.606086993233	2063
5	5924	520.606086993233	2064
5	5924	520.606086993233	2065
5	5924	520.606086993233	2066
5	5930	520.662991927067	2067
5	5930	520.662991927067	2068
5	5930	520.662991927067	2069
5	5930	520.662991927067	2070
5	5930	520.662991927067	2071
5	5949	521.106086993233	2072
5	5949	521.106086993233	2073
5	5949	521.106086993233	2074
5	5949	521.106086993233	2075
5	5963	523.106086993233	2076
5	5963	523.106086993233	2077
5	5963	523.106086993233	2078
5	5963	523.106086993233	2079
5	5972	525.106086993233	2080
5	5972	525.106086993233	2081
5	5972	525.106086993233	2082
5	5972	525.106086993233	2083
5	5973	525.106086993233	2084
5	5973	525.106086993233	2085
5	5973	525.106086993233	2086
5	5973	525.106086993233	2087
5	5984	525.162991927067	2088
5	5984	525.162991927067	2089
5	5984	525.162991927067	2090
5	5984	525.162991927067	2091
5	5984	525.162991927067	2092
5	6010	527.106086993233	2093
5	6010	527.106086993233	2094
5	6010	527.106086993233	2095
5	6010	527.106086993233	2096
5	6019	529.106086993233	2097
5	6019	529.106086993233	2098
5	6019	529.106086993233	2099
5	6019	529.106086993233	2100
5	6028	529.606086993233	2101
5	6028	529.606086993233	2102
5	6028	529.606086993233	2103
5	6028	529.606086993233	2104
5	6034	529.662991927067	2105
5	6034	529.662991927067	2106
5	6034	529.662991927067	2107
5	6034	529.662991927067	2108
5	6034	529.662991927067	2109
5	6061	531.106086993233	2110
5	6061	531.106086993233	2111
5	6061	531.106086993233	2112
5	6061	531.106086993233	2113
5	6071	533.106086993233	2114
5	6071	533.106086993233	2115
5	6071	533.106086993233	2116
5	6071	533.106086993233	2117
5	6080	534.106086993233	2118
5	6080	534.106086993233	2119
5	6080	534.106086993233	2120
5	6080	534.106086993233	2121
5	6086	534.162991927067	2122
5	6086	534.162991927067	2123
5	6086	534.162991927067	2124
5	6086	534.162991927067	2125
5	6086	534.162991927067	2126
5	6109	535.106086993233	2127
5	6109	535.106086993233	2128
5	6109	535.106086993233	2129
5	6109	535.106086993233	2130
5	6118	537.106086993233	2131
5	6118	537.106086993233	2132
5	6118	537.106086993233	2133
5	6118	537.106086993233	2134
5	6127	538.606086993233	2135
5	6127	538.606086993233	2136
5	6127	538.606086993233	2137
5	6127	538.606086993233	2138
5	6133	538.662991927067	2139
5	6133	538.662991927067	2140
5	6133	538.662991927067	2141
5	6133	538.662991927067	2142
5	6133	538.662991927067	2143
5	6152	539.106086993233	2144
5	6152	539.106086993233	2145
5	6152	539.106086993233	2146
5	6152	539.106086993233	2147
5	6169	541.106086993233	2148
5	6169	541.106086993233	2149
5	6169	541.106086993233	2150
5	6169	541.106086993233	2151
5	6179	543.106086993233	2152
5	6179	543.106086993233	2153
5	6179	543.106086993233	2154
5	6179	543.106086993233	2155
5	6180	543.106086993233	2156
5	6180	543.106086993233	2157
5	6180	543.106086993233	2158
5	6180	543.106086993233	2159
5	6191	543.162991927067	2160
5	6191	543.162991927067	2161
5	6191	543.162991927067	2162
5	6191	543.162991927067	2163
5	6191	543.162991927067	2164
5	6217	545.106086993233	2165
5	6217	545.106086993233	2166
5	6217	545.106086993233	2167
5	6217	545.106086993233	2168
5	6226	547.106086993233	2169
5	6226	547.106086993233	2170
5	6226	547.106086993233	2171
5	6226	547.106086993233	2172
5	6235	547.606086993233	2173
5	6235	547.606086993233	2174
5	6235	547.606086993233	2175
5	6235	547.606086993233	2176
5	6241	547.662991927067	2177
5	6241	547.662991927067	2178
5	6241	547.662991927067	2179
5	6241	547.662991927067	2180
5	6241	547.662991927067	2181
5	6264	549.106086993233	2182
5	6264	549.106086993233	2183
5	6264	549.106086993233	2184
5	6264	549.106086993233	2185
5	6277	551.106086993233	2186
5	6277	551.106086993233	2187
5	6277	551.106086993233	2188
5	6277	551.106086993233	2189
5	6287	552.106086993233	2190
5	6287	552.106086993233	2191
5	6287	552.106086993233	2192
5	6287	552.106086993233	2193
5	6293	552.162991927067	2194
5	6293	552.162991927067	2195
5	6293	552.162991927067	2196
5	6293	552.162991927067	2197
5	6293	552.162991927067	2198
5	6316	553.106086993233	2199
5	6316	553.106086993233	2200
5	6316	553.106086993233	2201
5	6316	553.106086993233	2202
5	6325	555.106086993233	2203
5	6325	555.106086993233	2204
5	6325	555.106086993233	2205
5	6325	555.106086993233	2206
5	6334	556.606086993233	2207
5	6334	556.606086993233	2208
5	6334	556.606086993233	2209
5	6334	556.606086993233	2210
5	6340	556.662991927067	2211
5	6340	556.662991927067	2212
5	6340	556.662991927067	2213
5	6340	556.662991927067	2214
5	6340	556.662991927067	2215
5	6359	557.106086993233	2216
5	6359	557.106086993233	2217
5	6359	557.106086993233	2218
5	6359	557.106086993233	2219
5	6372	559.106086993233	2220
5	6372	559.106086993233	2221
5	6372	559.106086993233	2222
5	6372	559.106086993233	2223
5	6385	561.106086993233	2224
5	6385	561.106086993233	2225
5	6385	561.106086993233	2226
5	6385	561.106086993233	2227
5	6386	561.106086993233	2228
5	6386	561.106086993233	2229
5	6386	561.106086993233	2230
5	6386	561.106086993233	2231
5	6397	561.162991927067	2232
5	6397	561.162991927067	2233
5	6397	561.162991927067	2234
5	6397	561.162991927067	2235
5	6397	561.162991927067	2236
5	6424	563.106086993233	2237
5	6424	563.106086993233	2238
5	6424	563.106086993233	2239
5	6424	563.106086993233	2240
5	6433	565.106086993233	2241
5	6433	565.106086993233	2242
5	6433	565.106086993233	2243
5	6433	565.106086993233	2244
5	6442	565.606086993233	2245
5	6442	565.606086993233	2246
5	6442	565.606086993233	2247
5	6442	565.606086993233	2248
5	6448	565.662991927067	2249
5	6448	565.662991927067	2250
5	6448	565.662991927067	2251
5	6448	565.662991927067	2252
5	6448	565.662991927067	2253
5	6471	567.106086993233	2254
5	6471	567.106086993233	2255
5	6471	567.106086993233	2256
5	6471	567.106086993233	2257
5	6480	569.106086993233	2258
5	6480	569.106086993233	2259
5	6480	569.106086993233	2260
5	6480	569.106086993233	2261
5	6493	570.106086993233	2262
5	6493	570.106086993233	2263
5	6493	570.106086993233	2264
5	6493	570.106086993233	2265
5	6499	570.162991927067	2266
5	6499	570.162991927067	2267
5	6499	570.162991927067	2268
5	6499	570.162991927067	2269
5	6499	570.162991927067	2270
5	6522	571.106086993233	2271
5	6522	571.106086993233	2272
5	6522	571.106086993233	2273
5	6522	571.106086993233	2274
5	6532	573.106086993233	2275
5	6532	573.106086993233	2276
5	6532	573.106086993233	2277
5	6532	573.106086993233	2278
5	6541	574.606086993233	2279
5	6541	574.606086993233	2280
5	6541	574.606086993233	2281
5	6541	574.606086993233	2282
5	6547	574.662991927067	2283
5	6547	574.662991927067	2284
5	6547	574.662991927067	2285
5	6547	574.662991927067	2286
5	6547	574.662991927067	2287
5	6566	575.106086993233	2288
5	6566	575.106086993233	2289
5	6566	575.106086993233	2290
5	6566	575.106086993233	2291
5	6579	577.106086993233	2292
5	6579	577.106086993233	2293
5	6579	577.106086993233	2294
5	6579	577.106086993233	2295
5	6588	579.106086993233	2296
5	6588	579.106086993233	2297
5	6588	579.106086993233	2298
5	6588	579.106086993233	2299
5	6589	579.106086993233	2300
5	6589	579.106086993233	2301
5	6589	579.106086993233	2302
5	6589	579.106086993233	2303
5	6600	579.162991927067	2304
5	6600	579.162991927067	2305
5	6600	579.162991927067	2306
5	6600	579.162991927067	2307
5	6600	579.162991927067	2308
5	6630	581.106086993233	2309
5	6630	581.106086993233	2310
5	6630	581.106086993233	2311
5	6630	581.106086993233	2312
5	6640	583.106086993233	2313
5	6640	583.106086993233	2314
5	6640	583.106086993233	2315
5	6640	583.106086993233	2316
5	6649	583.606086993233	2317
5	6649	583.606086993233	2318
5	6649	583.606086993233	2319
5	6649	583.606086993233	2320
5	6655	583.662991927067	2321
5	6655	583.662991927067	2322
5	6655	583.662991927067	2323
5	6655	583.662991927067	2324
5	6655	583.662991927067	2325
5	6678	585.106086993233	2326
5	6678	585.106086993233	2327
5	6678	585.106086993233	2328
5	6678	585.106086993233	2329
5	6687	587.106086993233	2330
5	6687	587.106086993233	2331
5	6687	587.106086993233	2332
5	6687	587.106086993233	2333
5	6696	588.106086993233	2334
5	6696	588.106086993233	2335
5	6696	588.106086993233	2336
5	6696	588.106086993233	2337
5	6702	588.162991927067	2338
5	6702	588.162991927067	2339
5	6702	588.162991927067	2340
5	6702	588.162991927067	2341
5	6702	588.162991927067	2342
5	6725	589.106086993233	2343
5	6725	589.106086993233	2344
5	6725	589.106086993233	2345
5	6725	589.106086993233	2346
5	6738	591.106086993233	2347
5	6738	591.106086993233	2348
5	6738	591.106086993233	2349
5	6738	591.106086993233	2350
5	6748	592.606086993233	2351
5	6748	592.606086993233	2352
5	6748	592.606086993233	2353
5	6748	592.606086993233	2354
5	6754	592.662991927067	2355
5	6754	592.662991927067	2356
5	6754	592.662991927067	2357
5	6754	592.662991927067	2358
5	6754	592.662991927067	2359
5	6773	593.106086993233	2360
5	6773	593.106086993233	2361
5	6773	593.106086993233	2362
5	6773	593.106086993233	2363
5	6786	595.106086993233	2364
5	6786	595.106086993233	2365
5	6786	595.106086993233	2366
5	6786	595.106086993233	2367
5	6795	597.106086993233	2368
5	6795	597.106086993233	2369
5	6795	597.106086993233	2370
5	6795	597.106086993233	2371
5	6796	597.106086993233	2372
5	6796	597.106086993233	2373
5	6796	597.106086993233	2374
5	6796	597.106086993233	2375
5	6807	597.162991927067	2376
5	6807	597.162991927067	2377
5	6807	597.162991927067	2378
5	6807	597.162991927067	2379
5	6807	597.162991927067	2380
5	6833	599.106086993233	2381
5	6833	599.106086993233	2382
5	6833	599.106086993233	2383
5	6833	599.106086993233	2384
5	6846	601.106086993233	2385
5	6846	601.106086993233	2386
5	6846	601.106086993233	2387
5	6846	601.106086993233	2388
5	6855	601.606086993233	2389
5	6855	601.606086993233	2390
5	6855	601.606086993233	2391
5	6855	601.606086993233	2392
5	6861	601.662991927067	2393
5	6861	601.662991927067	2394
5	6861	601.662991927067	2395
5	6861	601.662991927067	2396
5	6861	601.662991927067	2397
5	6885	603.106086993233	2398
5	6885	603.106086993233	2399
5	6885	603.106086993233	2400
5	6885	603.106086993233	2401
5	6894	605.106086993233	2402
5	6894	605.106086993233	2403
5	6894	605.106086993233	2404
5	6894	605.106086993233	2405
5	6903	606.106086993233	2406
5	6903	606.106086993233	2407
5	6903	606.106086993233	2408
5	6903	606.106086993233	2409
5	6909	606.162991927067	2410
5	6909	606.162991927067	2411
5	6909	606.162991927067	2412
5	6909	606.162991927067	2413
5	6909	606.162991927067	2414
5	6932	607.106086993233	2415
5	6932	607.106086993233	2416
5	6932	607.106086993233	2417
5	6932	607.106086993233	2418
5	6941	609.106086993233	2419
5	6941	609.106086993233	2420
5	6941	609.106086993233	2421
5	6941	609.106086993233	2422
5	6954	610.606086993233	2423
5	6954	610.606086993233	2424
5	6954	610.606086993233	2425
5	6954	610.606086993233	2426
5	6960	610.662991927067	2427
5	6960	610.662991927067	2428
5	6960	610.662991927067	2429
5	6960	610.662991927067	2430
5	6960	610.662991927067	2431
5	6979	611.106086993233	2432
5	6979	611.106086993233	2433
5	6979	611.106086993233	2434
5	6979	611.106086993233	2435
5	6993	613.106086993233	2436
5	6993	613.106086993233	2437
5	6993	613.106086993233	2438
5	6993	613.106086993233	2439
5	7002	615.106086993233	2440
5	7002	615.106086993233	2441
5	7002	615.106086993233	2442
5	7002	615.106086993233	2443
5	7003	615.106086993233	2444
5	7003	615.106086993233	2445
5	7003	615.106086993233	2446
5	7003	615.106086993233	2447
5	7014	615.162991927067	2448
5	7014	615.162991927067	2449
5	7014	615.162991927067	2450
5	7014	615.162991927067	2451
5	7014	615.162991927067	2452
5	7040	617.106086993233	2453
5	7040	617.106086993233	2454
5	7040	617.106086993233	2455
5	7040	617.106086993233	2456
5	7049	619.106086993233	2457
5	7049	619.106086993233	2458
5	7049	619.106086993233	2459
5	7049	619.106086993233	2460
5	7058	619.606086993233	2461
5	7058	619.606086993233	2462
5	7058	619.606086993233	2463
5	7058	619.606086993233	2464
5	7064	619.662991927067	2465
5	7064	619.662991927067	2466
5	7064	619.662991927067	2467
5	7064	619.662991927067	2468
5	7064	619.662991927067	2469
5	7091	621.106086993233	2470
5	7091	621.106086993233	2471
5	7091	621.106086993233	2472
5	7091	621.106086993233	2473
5	7101	623.106086993233	2474
5	7101	623.106086993233	2475
5	7101	623.106086993233	2476
5	7101	623.106086993233	2477
5	7110	624.106086993233	2478
5	7110	624.106086993233	2479
5	7110	624.106086993233	2480
5	7110	624.106086993233	2481
5	7116	624.162991927067	2482
5	7116	624.162991927067	2483
5	7116	624.162991927067	2484
5	7116	624.162991927067	2485
5	7116	624.162991927067	2486
5	7139	625.106086993233	2487
5	7139	625.106086993233	2488
5	7139	625.106086993233	2489
5	7139	625.106086993233	2490
5	7148	627.106086993233	2491
5	7148	627.106086993233	2492
5	7148	627.106086993233	2493
5	7148	627.106086993233	2494
5	7157	628.606086993233	2495
5	7157	628.606086993233	2496
5	7157	628.606086993233	2497
5	7157	628.606086993233	2498
5	7163	628.662991927067	2499
5	7163	628.662991927067	2500
5	7163	628.662991927067	2501
5	7163	628.662991927067	2502
5	7163	628.662991927067	2503
5	7182	629.106086993233	2504
5	7182	629.106086993233	2505
5	7182	629.106086993233	2506
5	7182	629.106086993233	2507
5	7199	631.106086993233	2508
5	7199	631.106086993233	2509
5	7199	631.106086993233	2510
5	7199	631.106086993233	2511
5	7209	633.106086993233	2512
5	7209	633.106086993233	2513
5	7209	633.106086993233	2514
5	7209	633.106086993233	2515
5	7210	633.106086993233	2516
5	7210	633.106086993233	2517
5	7210	633.106086993233	2518
5	7210	633.106086993233	2519
5	7221	633.162991927067	2520
5	7221	633.162991927067	2521
5	7221	633.162991927067	2522
5	7221	633.162991927067	2523
5	7221	633.162991927067	2524
5	7247	635.106086993233	2525
5	7247	635.106086993233	2526
5	7247	635.106086993233	2527
5	7247	635.106086993233	2528
5	7256	637.106086993233	2529
5	7256	637.106086993233	2530
5	7256	637.106086993233	2531
5	7256	637.106086993233	2532
5	7265	637.606086993233	2533
5	7265	637.606086993233	2534
5	7265	637.606086993233	2535
5	7265	637.606086993233	2536
5	7271	637.662991927067	2537
5	7271	637.662991927067	2538
5	7271	637.662991927067	2539
5	7271	637.662991927067	2540
5	7271	637.662991927067	2541
5	7294	639.106086993233	2542
5	7294	639.106086993233	2543
5	7294	639.106086993233	2544
5	7294	639.106086993233	2545
5	7307	641.106086993233	2546
5	7307	641.106086993233	2547
5	7307	641.106086993233	2548
5	7307	641.106086993233	2549
5	7317	642.106086993233	2550
5	7317	642.106086993233	2551
5	7317	642.106086993233	2552
5	7317	642.106086993233	2553
5	7323	642.162991927067	2554
5	7323	642.162991927067	2555
5	7323	642.162991927067	2556
5	7323	642.162991927067	2557
5	7323	642.162991927067	2558
5	7346	643.106086993233	2559
5	7346	643.106086993233	2560
5	7346	643.106086993233	2561
5	7346	643.106086993233	2562
5	7355	645.106086993233	2563
5	7355	645.106086993233	2564
5	7355	645.106086993233	2565
5	7355	645.106086993233	2566
5	7364	646.606086993233	2567
5	7364	646.606086993233	2568
5	7364	646.606086993233	2569
5	7364	646.606086993233	2570
5	7370	646.662991927067	2571
5	7370	646.662991927067	2572
5	7370	646.662991927067	2573
5	7370	646.662991927067	2574
5	7370	646.662991927067	2575
5	7389	647.106086993233	2576
5	7389	647.106086993233	2577
5	7389	647.106086993233	2578
5	7389	647.106086993233	2579
5	7402	649.106086993233	2580
5	7402	649.106086993233	2581
5	7402	649.106086993233	2582
5	7402	649.106086993233	2583
5	7415	651.106086993233	2584
5	7415	651.106086993233	2585
5	7415	651.106086993233	2586
5	7415	651.106086993233	2587
5	7416	651.106086993233	2588
5	7416	651.106086993233	2589
5	7416	651.106086993233	2590
5	7416	651.106086993233	2591
5	7427	651.162991927067	2592
5	7427	651.162991927067	2593
5	7427	651.162991927067	2594
5	7427	651.162991927067	2595
5	7427	651.162991927067	2596
5	7454	653.106086993233	2597
5	7454	653.106086993233	2598
5	7454	653.106086993233	2599
5	7454	653.106086993233	2600
5	7463	655.106086993233	2601
5	7463	655.106086993233	2602
5	7463	655.106086993233	2603
5	7463	655.106086993233	2604
5	7472	655.606086993233	2605
5	7472	655.606086993233	2606
5	7472	655.606086993233	2607
5	7472	655.606086993233	2608
5	7478	655.662991927067	2609
5	7478	655.662991927067	2610
5	7478	655.662991927067	2611
5	7478	655.662991927067	2612
[...]
34	44987	3932.425789811882	1100
34	44995	3932.925789811882	1101
34	45026	3934.425789811882	1102
34	45038	3936.425789811882	1103
34	45047	3937.425789811882	1104
34	45076	3938.425789811882	1105
34	45087	3940.425789811882	1106
34	45096	3941.925789811882	1107
34	45125	3942.425789811882	1108
34	45136	3944.425789811882	1109
34	45153	3946.425789811882	1110
34	45154	3946.425789811882	1111
34	45186	3948.425789811882	1112
34	45196	3950.425789811882	1113
34	45205	3950.925789811882	1114
34	45234	3952.425789811882	1115
34	45244	3954.425789811882	1116
34	45253	3955.425789811882	1117
34	45284	3956.425789811882	1118
34	45293	3958.425789811882	1119
34	45304	3959.925789811882	1120
34	45333	3960.425789811882	1121
34	45342	3962.425789811882	1122
34	45357	3964.425789811882	1123
34	45358	3964.425789811882	1124
34	45392	3966.425789811882	1125
34	45401	3968.425789811882	1126
34	45410	3968.925789811882	1127
34	45441	3970.425789811882	1128
34	45450	3972.425789811882	1129
34	45459	3973.425789811882	1130
34	45489	3974.425789811882	1131
34	45500	3976.425789811882	1132
34	45509	3977.925789811882	1133
34	45538	3978.425789811882	1134
34	45549	3980.425789811882	1135
34	45563	3982.425789811882	1136
34	45564	3982.425789811882	1137
34	45597	3984.425789811882	1138
34	45608	3986.425789811882	1139
34	45617	3986.925789811882	1140
34	45646	3988.425789811882	1141
34	45657	3990.425789811882	1142
34	45666	3991.425789811882	1143
34	45695	3992.425789811882	1144
34	45705	3994.425789811882	1145
34	45714	3995.925789811882	1146
34	45745	3996.425789811882	1147
34	45754	3998.425789811882	1148
34	45770	4000.425789811882	1149
34	45771	4000.425789811882	1150
34	45803	4002.425789811882	1151
34	45813	4004.425789811882	1152
34	45822	4004.925789811882	1153
34	45853	4006.425789811882	1154
34	45862	4008.425789811882	1155
34	45873	4009.425789811882	1156
34	45902	4010.425789811882	1157
34	45911	4012.425789811882	1158
34	45920	4013.925789811882	1159
34	45950	4014.425789811882	1160
34	45961	4016.425789811882	1161
34	45975	4018.425789811882	1162
34	45976	4018.425789811882	1163
34	46010	4020.425789811882	1164
34	46019	4022.425789811882	1165
34	46028	4022.925789811882	1166
34	46058	4024.425789811882	1167
34	46069	4026.425789811882	1168
34	46078	4027.425789811882	1169
34	46107	4028.425789811882	1170
34	46118	4030.425789811882	1171
34	46127	4031.925789811882	1172
34	46156	4032.425789811882	1173
34	46166	4034.425789811882	1174
34	46182	4036.425789811882	1175
34	46183	4036.425789811882	1176
34	46215	4038.425789811882	1177
34	46226	4040.425789811882	1178
34	46235	4040.925789811882	1179
34	46264	4042.425789811882	1180
34	46274	4044.425789811882	1181
34	46283	4045.425789811882	1182
34	46314	4046.425789811882	1183
34	46323	4048.425789811882	1184
34	46334	4049.925789811882	1185
34	46363	4050.425789811882	1186
34	46372	4052.425789811882	1187
34	46387	4054.425789811882	1188
34	46388	4054.425789811882	1189
34	46422	4056.425789811882	1190
34	46431	4058.425789811882	1191
34	46440	4058.925789811882	1192
34	46471	4060.425789811882	1193
34	46480	4062.425789811882	1194
34	46489	4063.425789811882	1195
34	46519	4064.425789811882	1196
34	46530	4066.425789811882	1197
34	46539	4067.925789811882	1198
34	46568	4068.425789811882	1199
34	46579	4070.425789811882	1200
34	46593	4072.425789811882	1201
34	46594	4072.425789811882	1202
34	46627	4074.425789811882	1203
34	46638	4076.425789811882	1204
34	46647	4076.925789811882	1205
34	46676	4078.425789811882	1206
34	46687	4080.425789811882	1207
34	46696	4081.425789811882	1208
34	46725	4082.425789811882	1209
34	46735	4084.425789811882	1210
34	46744	4085.925789811882	1211
34	46775	4086.425789811882	1212
34	46784	4088.425789811882	1213
34	46800	4090.425789811882	1214
34	46801	4090.425789811882	1215
34	46833	4092.425789811882	1216
34	46843	4094.425789811882	1217
34	46852	4094.925789811882	1218
34	46883	4096.425789811882	1219
34	46892	4098.425789811882	1220
34	46903	4099.425789811882	1221
34	46932	4100.425789811882	1222
34	46941	4102.425789811882	1223
34	46950	4103.925789811882	1224
34	46980	4104.425789811882	1225
34	46991	4106.425789811882	1226
34	47005	4108.425789811882	1227
34	47006	4108.425789811882	1228
34	47040	4110.425789811882	1229
34	47049	4112.425789811882	1230
34	47058	4112.925789811882	1231
34	47088	4114.425789811882	1232
34	47099	4116.425789811882	1233
34	47108	4117.425789811882	1234
34	47137	4118.425789811882	1235
34	47148	4120.425789811882	1236
34	47157	4121.925789811882	1237
34	47186	4122.425789811882	1238
34	47196	4124.425789811882	1239
34	47212	4126.425789811882	1240
34	47213	4126.425789811882	1241
34	47245	4128.425789811882	1242
34	47256	4130.425789811882	1243
34	47265	4130.925789811882	1244
34	47294	4132.425789811882	1245
34	47304	4134.425789811882	1246
34	47313	4135.425789811882	1247
34	47344	4136.425789811882	1248
34	47353	4138.425789811882	1249
34	47364	4139.925789811882	1250
34	47393	4140.425789811882	1251
34	47402	4142.425789811882	1252
34	47417	4144.425789811882	1253
34	47418	4144.425789811882	1254
34	47452	4146.425789811882	1255
34	47461	4148.425789811882	1256
34	47470	4148.925789811882	1257
34	47501	4150.425789811882	1258
34	47510	4152.425789811882	1259
34	47519	4153.425789811882	1260
34	47549	4154.425789811882	1261
34	47560	4156.425789811882	1262
34	47569	4157.925789811882	1263
34	47598	4158.425789811882	1264
34	47609	4160.425789811882	1265
34	47623	4162.425789811882	1266
34	47624	4162.425789811882	1267
34	47657	4164.425789811882	1268
34	47668	4166.425789811882	1269
34	47677	4166.925789811882	1270
34	47706	4168.425789811882	1271
34	47717	4170.425789811882	1272
34	47726	4171.425789811882	1273
34	47755	4172.425789811882	1274
34	47765	4174.425789811882	1275
34	47774	4175.925789811882	1276
34	47805	4176.425789811882	1277
34	47814	4178.425789811882	1278
34	47830	4180.425789811882	1279
34	47831	4180.425789811882	1280
34	47863	4182.425789811882	1281
34	47873	4184.425789811882	1282
34	47882	4184.925789811882	1283
34	47913	4186.425789811882	1284
34	47922	4188.425789811882	1285
34	47933	4189.425789811882	1286
34	47962	4190.425789811882	1287
34	47971	4192.425789811882	1288
34	47980	4193.925789811882	1289
34	48010	4194.425789811882	1290
34	48021	4196.425789811882	1291
34	48035	4198.425789811882	1292
34	48036	4198.425789811882	1293
34	48070	4200.425789811882	1294
34	48079	4202.425789811882	1295
34	48088	4202.925789811882	1296
34	48118	4204.425789811882	1297
34	48129	4206.425789811882	1298
34	48138	4207.425789811882	1299
34	48167	4208.425789811882	1300
34	48178	4210.425789811882	1301
34	48187	4211.925789811882	1302
34	48216	4212.425789811882	1303
34	48226	4214.425789811882	1304
34	48242	4216.425789811882	1305
34	48243	4216.425789811882	1306
34	48275	4218.425789811882	1307
34	48286	4220.425789811882	1308
34	48295	4220.925789811882	1309
34	48324	4222.425789811882	1310
34	48334	4224.425789811882	1311
34	48343	4225.425789811882	1312
34	48374	4226.425789811882	1313
34	48383	4228.425789811882	1314
34	48394	4229.925789811882	1315
34	48423	4230.425789811882	1316
34	48432	4232.425789811882	1317
34	48447	4234.425789811882	1318
34	48448	4234.425789811882	1319
34	48482	4236.425789811882	1320
34	48491	4238.425789811882	1321
34	48500	4238.925789811882	1322
34	48531	4240.425789811882	1323
34	48540	4242.425789811882	1324
34	48549	4243.425789811882	1325
34	48579	4244.425789811882	1326
34	48590	4246.425789811882	1327
34	48599	4247.925789811882	1328
34	48628	4248.425789811882	1329
34	48639	4250.425789811882	1330
34	48653	4252.425789811882	1331
34	48654	4252.425789811882	1332
34	48687	4254.425789811882	1333
34	48698	4256.425789811882	1334
34	48707	4256.925789811882	1335
34	48736	4258.425789811882	1336
34	48747	4260.425789811882	1337
34	48756	4261.425789811882	1338
34	48785	4262.425789811882	1339
34	48795	4264.425789811882	1340
34	48804	4265.925789811882	1341
34	48835	4266.425789811882	1342
34	48844	4268.425789811882	1343
34	48860	4270.425789811882	1344
34	48861	4270.425789811882	1345
34	48893	4272.425789811882	1346
34	48903	4274.425789811882	1347
34	48912	4274.925789811882	1348
34	48943	4276.425789811882	1349
34	48952	4278.425789811882	1350
34	48963	4279.425789811882	1351
34	48992	4280.425789811882	1352
34	49001	4282.425789811882	1353
34	49010	4283.925789811882	1354
34	49040	4284.425789811882	1355
34	49051	4286.425789811882	1356
34	49065	4288.425789811882	1357
34	49066	4288.425789811882	1358
34	49100	4290.425789811882	1359
34	49109	4292.425789811882	1360
34	49118	4292.925789811882	1361
34	49148	4294.425789811882	1362
34	49159	4296.425789811882	1363
34	49168	4297.425789811882	1364
34	49197	4298.425789811882	1365
34	49208	4300.425789811882	1366
34	49217	4301.925789811882	1367
34	49246	4302.425789811882	1368
34	49256	4304.425789811882	1369
34	49272	4306.425789811882	1370
34	49273	4306.425789811882	1371
34	49305	4308.425789811882	1372
34	49316	4310.425789811882	1373
34	49325	4310.925789811882	1374
34	49354	4312.425789811882	1375
34	49364	4314.425789811882	1376
34	49373	4315.425789811882	1377
34	49404	4316.425789811882	1378
34	49413	4318.425789811882	1379
34	49424	4319.925789811882	1380
34	49453	4320.425789811882	1381
34	49462	4322.425789811882	1382
34	49477	4324.425789811882	1383
34	49478	4324.425789811882	1384
34	51809	4529.649347442202	1385
34	51820	4531.649347442202	1386
34	51833	4532.149347442202	1387
34	51859	4533.649347442202	1388
34	51868	4535.649347442202	1389
34	51878	4536.649347442202	1390
34	51908	4537.649347442202	1391
34	51920	4539.649347442202	1392
34	51929	4541.149347442202	1393
34	51958	4541.649347442202	1394
34	51967	4543.649347442202	1395
34	51981	4545.649347442202	1396
34	51982	4545.649347442202	1397
34	52016	4547.649347442202	1398
34	52028	4549.649347442202	1399
34	52037	4550.149347442202	1400
34	52066	4551.649347442202	1401
34	52075	4553.649347442202	1402
34	52084	4554.649347442202	1403
34	52113	4555.649347442202	1404
34	52124	4557.649347442202	1405
34	52136	4559.149347442202	1406
34	52165	4559.649347442202	1407
34	52174	4561.649347442202	1408
34	52188	4563.649347442202	1409
34	52189	4563.649347442202	1410
34	52221	4565.649347442202	1411
34	52232	4567.649347442202	1412
34	52242	4568.149347442202	1413
34	52273	4569.649347442202	1414
34	52282	4571.649347442202	1415
34	52291	4572.649347442202	1416
34	52320	4573.649347442202	1417
34	52329	4575.649347442202	1418
34	52340	4577.149347442202	1419
34	52369	4577.649347442202	1420
34	52381	4579.649347442202	1421
34	52395	4581.649347442202	1422
34	52396	4581.649347442202	1423
34	52428	4583.649347442202	1424
34	52437	4585.649347442202	1425
34	52447	4586.149347442202	1426
34	52477	4587.649347442202	1427
34	52489	4589.649347442202	1428
34	52498	4590.649347442202	1429
34	52527	4591.649347442202	1430
34	52536	4593.649347442202	1431
34	52545	4595.149347442202	1432
34	52574	4595.649347442202	1433
34	52585	4597.649347442202	1434
34	52602	4599.649347442202	1435
34	52603	4599.649347442202	1436
34	52635	4601.649347442202	1437
34	52644	4603.649347442202	1438
34	52653	4604.149347442202	1439
34	52682	4605.649347442202	1440
34	52693	4607.649347442202	1441
34	52703	4608.649347442202	1442
34	52734	4609.649347442202	1443
34	52743	4611.649347442202	1444
34	52752	4613.149347442202	1445
34	52781	4613.649347442202	1446
34	52790	4615.649347442202	1447
34	52806	4617.649347442202	1448
34	52807	4617.649347442202	1449
34	52842	4619.649347442202	1450
34	52851	4621.649347442202	1451
34	52860	4622.149347442202	1452
34	52889	4623.649347442202	1453
34	52898	4625.649347442202	1454
34	52908	4626.649347442202	1455
34	52938	4627.649347442202	1456
34	52961	4631.149347442202	1457
34	52990	4631.649347442202	1458
34	52999	4633.649347442202	1459
34	53013	4635.649347442202	1460
34	53014	4635.649347442202	1461
34	53048	4637.649347442202	1462
34	53059	4639.649347442202	1463
34	53068	4640.149347442202	1464
34	53098	4641.649347442202	1465
34	53107	4643.649347442202	1466
34	53116	4644.649347442202	1467
34	53145	4645.649347442202	1468
34	53156	4647.649347442202	1469
34	53167	4649.149347442202	1470
34	53196	4649.649347442202	1471
34	53206	4651.649347442202	1472
34	53220	4653.649347442202	1473
34	53221	4653.649347442202	1474
34	53253	4655.649347442202	1475
34	53264	4657.649347442202	1476
34	53273	4658.149347442202	1477
34	53304	4659.649347442202	1478
34	53314	4661.649347442202	1479
34	53323	4662.649347442202	1480
34	53352	4663.649347442202	1481
34	53361	4665.649347442202	1482
34	53372	4667.149347442202	1483
34	53401	4667.649347442202	1484
34	53412	4669.649347442202	1485
34	53427	4671.649347442202	1486
34	53428	4671.649347442202	1487
34	53460	4673.649347442202	1488
34	53469	4675.649347442202	1489
34	53479	4676.149347442202	1490
34	53509	4677.649347442202	1491
34	53520	4679.649347442202	1492
34	53529	4680.649347442202	1493
34	53559	4681.649347442202	1494
34	53568	4683.649347442202	1495
34	53577	4685.149347442202	1496
34	53606	4685.649347442202	1497
34	53617	4687.649347442202	1498
34	53633	4689.649347442202	1499
34	53634	4689.649347442202	1500
34	53667	4691.649347442202	1501
34	53676	4693.649347442202	1502
34	53685	4694.149347442202	1503
34	53714	4695.649347442202	1504
34	53725	4697.649347442202	1505
34	53734	4698.649347442202	1506
34	53765	4699.649347442202	1507
34	53775	4701.649347442202	1508
34	53784	4703.149347442202	1509
34	53813	4703.649347442202	1510
34	53822	4705.649347442202	1511
34	53838	4707.649347442202	1512
34	53839	4707.649347442202	1513
34	53873	4709.649347442202	1514
34	53883	4711.649347442202	1515
34	53892	4712.149347442202	1516
34	53921	4713.649347442202	1517
34	53930	4715.649347442202	1518
34	53940	4716.649347442202	1519
34	53970	4717.649347442202	1520
34	53981	4719.649347442202	1521
34	53991	4721.149347442202	1522
34	54020	4721.649347442202	1523
34	54029	4723.649347442202	1524
34	54043	4725.649347442202	1525
34	54044	4725.649347442202	1526
34	54078	4727.649347442202	1527
34	54089	4729.649347442202	1528
34	54098	4730.149347442202	1529
34	54128	4731.649347442202	1530
34	54137	4733.649347442202	1531
34	54146	4734.649347442202	1532
34	54175	4735.649347442202	1533
34	54186	4737.649347442202	1534
34	54197	4739.149347442202	1535
34	54226	4739.649347442202	1536
34	54236	4741.649347442202	1537
34	54250	4743.649347442202	1538
34	54251	4743.649347442202	1539
34	54283	4745.649347442202	1540
34	54294	4747.649347442202	1541
34	54303	4748.149347442202	1542
34	54334	4749.649347442202	1543
34	54344	4751.649347442202	1544
34	54353	4752.649347442202	1545
34	54382	4753.649347442202	1546
34	54391	4755.649347442202	1547
34	54402	4757.149347442202	1548
34	54431	4757.649347442202	1549
34	54442	4759.649347442202	1550
34	54457	4761.649347442202	1551
34	54458	4761.649347442202	1552
34	54490	4763.649347442202	1553
34	54499	4765.649347442202	1554
34	54509	4766.149347442202	1555
34	54539	4767.649347442202	1556
34	54550	4769.649347442202	1557
34	54559	4770.649347442202	1558
34	54589	4771.649347442202	1559
34	54598	4773.649347442202	1560
34	54607	4775.149347442202	1561
34	54636	4775.649347442202	1562
34	54647	4777.649347442202	1563
34	54663	4779.649347442202	1564
34	54664	4779.649347442202	1565
34	54697	4781.649347442202	1566
34	54706	4783.649347442202	1567
34	54715	4784.149347442202	1568
34	54744	4785.649347442202	1569
34	54755	4787.649347442202	1570
34	54764	4788.649347442202	1571
34	54795	4789.649347442202	1572
34	54805	4791.649347442202	1573
34	54814	4793.149347442202	1574
34	54843	4793.649347442202	1575
34	54852	4795.649347442202	1576
34	54868	4797.649347442202	1577
34	54869	4797.649347442202	1578
34	54903	4799.649347442202	1579
34	54913	4801.649347442202	1580
34	54922	4802.149347442202	1581
34	54951	4803.649347442202	1582
34	54960	4805.649347442202	1583
34	54970	4806.649347442202	1584
34	55000	4807.649347442202	1585
34	55011	4809.649347442202	1586
34	55021	4811.149347442202	1587
34	55050	4811.649347442202	1588
34	55059	4813.649347442202	1589
34	55073	4815.649347442202	1590
34	55074	4815.649347442202	1591
34	55108	4817.649347442202	1592
34	55119	4819.649347442202	1593
34	55128	4820.149347442202	1594
34	55158	4821.649347442202	1595
34	55167	4823.649347442202	1596
34	55176	4824.649347442202	1597
34	55205	4825.649347442202	1598
34	55216	4827.649347442202	1599
34	55227	4829.149347442202	1600
34	55256	4829.649347442202	1601
34	55266	4831.649347442202	1602
34	55280	4833.649347442202	1603
34	55281	4833.649347442202	1604
34	55313	4835.649347442202	1605
34	55324	4837.649347442202	1606
34	55333	4838.149347442202	1607
34	55364	4839.649347442202	1608
34	55374	4841.649347442202	1609
34	55383	4842.649347442202	1610
34	55412	4843.649347442202	1611
34	55421	4845.649347442202	1612
34	55432	4847.149347442202	1613
34	55461	4847.649347442202	1614
34	55472	4849.649347442202	1615
34	55487	4851.649347442202	1616
34	55488	4851.649347442202	1617
34	55520	4853.649347442202	1618
34	55529	4855.649347442202	1619
34	55539	4856.149347442202	1620
34	55569	4857.649347442202	1621
34	55580	4859.649347442202	1622
34	55589	4860.649347442202	1623
34	55619	4861.649347442202	1624
34	55628	4863.649347442202	1625
34	55637	4865.149347442202	1626
34	55666	4865.649347442202	1627
34	55677	4867.649347442202	1628
34	55693	4869.649347442202	1629
34	55694	4869.649347442202	1630
34	55727	4871.649347442202	1631
34	55736	4873.649347442202	1632
34	55745	4874.149347442202	1633
34	55774	4875.649347442202	1634
34	55785	4877.649347442202	1635
34	55794	4878.649347442202	1636
34	55825	4879.649347442202	1637
34	55835	4881.649347442202	1638
34	55844	4883.149347442202	1639
34	55873	4883.649347442202	1640
34	55882	4885.649347442202	1641
34	55898	4887.649347442202	1642
34	55899	4887.649347442202	1643
34	55933	4889.649347442202	1644
34	55943	4891.649347442202	1645
34	55952	4892.149347442202	1646
34	55981	4893.649347442202	1647
34	55990	4895.649347442202	1648
34	56000	4896.649347442202	1649
34	56030	4897.649347442202	1650
34	56041	4899.649347442202	1651
34	56051	4901.149347442202	1652
34	56080	4901.649347442202	1653
34	56089	4903.649347442202	1654
34	56103	4905.649347442202	1655
34	56104	4905.649347442202	1656
34	56138	4907.649347442202	1657
34	56149	4909.649347442202	1658
34	56158	4910.149347442202	1659
34	56188	4911.649347442202	1660
34	56197	4913.649347442202	1661
34	56206	4914.649347442202	1662
34	56235	4915.649347442202	1663
34	56246	4917.649347442202	1664
34	56257	4919.149347442202	1665
34	56286	4919.649347442202	1666
34	56296	4921.649347442202	1667
34	56310	4923.649347442202	1668
34	56311	4923.649347442202	1669
34	56343	4925.649347442202	1670
34	56354	4927.649347442202	1671
34	56363	4928.149347442202	1672
34	56394	4929.649347442202	1673
34	56404	4931.649347442202	1674
34	56413	4932.649347442202	1675
34	56442	4933.649347442202	1676
34	56451	4935.649347442202	1677
34	56462	4937.149347442202	1678
34	56491	4937.649347442202	1679
34	56502	4939.649347442202	1680
34	56517	4941.649347442202	1681
34	56518	4941.649347442202	1682
34	56550	4943.649347442202	1683
34	56559	4945.649347442202	1684
34	56569	4946.149347442202	1685
34	56599	4947.649347442202	1686
34	56610	4949.649347442202	1687
34	56619	4950.649347442202	1688
34	56649	4951.649347442202	1689
34	56658	4953.649347442202	1690
34	56667	4955.149347442202	1691
34	56696	4955.649347442202	1692
34	56707	4957.649347442202	1693
34	56723	4959.649347442202	1694
34	56724	4959.649347442202	1695
34	56757	4961.649347442202	1696
34	56766	4963.649347442202	1697
34	56775	4964.149347442202	1698
34	56804	4965.649347442202	1699
34	56815	4967.649347442202	1700
34	56824	4968.649347442202	1701
34	56855	4969.649347442202	1702
34	56865	4971.649347442202	1703
34	56874	4973.149347442202	1704
34	56903	4973.649347442202	1705
34	56912	4975.649347442202	1706
34	56928	4977.649347442202	1707
34	56929	4977.649347442202	1708
34	56963	4979.649347442202	1709
34	56973	4981.649347442202	1710
34	56982	4982.149347442202	1711
34	57011	4983.649347442202	1712
34	57020	4985.649347442202	1713
34	57030	4986.649347442202	1714
34	57060	4987.649347442202	1715
34	57071	4989.649347442202	1716
34	57081	4991.149347442202	1717
34	57110	4991.649347442202	1718
34	57119	4993.649347442202	1719
34	57133	4995.649347442202	1720
34	57134	4995.649347442202	1721
34	57168	4997.649347442202	1722
34	57179	4999.649347442202	1723

