file 3336474 1648760094                                         
version 2
run StaticNetwork-5-20220331-22:53:34-8056
attr configname StaticNetwork
attr datetime 20220331-22:53:34
attr experiment StaticNetwork
attr inifile omnetpp.ini
attr iterationvars "$0=5, $1=5, $2=normal(7.0s, 1.5s), $3=uniform(0.1s, 0.3s), $4=6s, $5=2s, $6=4.5s, $7=5s, $8=1s, $9=1, $10=7, $11=0"
attr iterationvarsf 5,5,normal(7.0s,_1.5s),uniform(0.1s,_0.3s),6s,2s,4.5s,5s,1s,1,7,0-
attr measurement "$0=5, $1=5, $2=normal(7.0s, 1.5s), $3=uniform(0.1s, 0.3s), $4=6s, $5=2s, $6=4.5s, $7=5s, $8=1s, $9=1, $10=7, $11=0"
attr network RAFT_Network
attr processid 8056
attr repetition 1
attr replication #1
attr resultdir results
attr runnumber 5
attr seedset 5
param **.servers_number 5
param **.clients_number 5
param **.client[*].requestMsgTimeout "normal(7.0s, 1.5s)"
param **.cloud.propDelay "uniform(0.1s, 0.3s)"
param **.server[*].electionTimeout 6s
param **.server[*].heartbeatTimeout 2s
param **.server[*].appendEntriesTimeout 4.5s
param **.server[*].checkFailureTimeout 5s
param **.server[*].checkRecoveryTimeout 1s
param **.failureProbability 1
param **.recoveryProbability 7
param **.messageLossProbability 0

vector 0 RAFT_Network.server[0] serverState ETV
vector 1 RAFT_Network.server[1] serverState ETV
vector 2 RAFT_Network.server[2] serverState ETV
vector 3 RAFT_Network.server[3] serverState ETV
vector 4 RAFT_Network.server[4] serverState ETV
vector 5 RAFT_Network.server[0] totMsgSent ETV
vector 6 RAFT_Network.server[0] totRequestVoteMsgSent ETV
vector 7 RAFT_Network.server[1] totMsgSent ETV
vector 8 RAFT_Network.server[1] totRequestVoteMsgSent ETV
vector 9 RAFT_Network.server[2] totMsgSent ETV
vector 10 RAFT_Network.server[2] totRequestVoteMsgSent ETV
vector 11 RAFT_Network.server[3] totMsgSent ETV
vector 12 RAFT_Network.server[3] totRequestVoteMsgSent ETV
vector 13 RAFT_Network.server[4] totMsgSent ETV
vector 14 RAFT_Network.server[4] totRequestVoteMsgSent ETV
vector 15 RAFT_Network.server[1] totMsgReceived ETV
vector 16 RAFT_Network.server[1] totReplyToClientRequestMsgSent ETV
vector 17 RAFT_Network.server[4] totMsgReceived ETV
vector 18 RAFT_Network.server[4] totReplyToClientRequestMsgSent ETV
vector 19 RAFT_Network.server[2] totMsgReceived ETV
vector 20 RAFT_Network.server[2] totReplyToClientRequestMsgSent ETV
vector 21 RAFT_Network.server[0] totMsgReceived ETV
vector 22 RAFT_Network.server[0] totReplyToClientRequestMsgSent ETV
vector 23 RAFT_Network.server[3] totMsgReceived ETV
vector 24 RAFT_Network.server[3] totReplyToClientRequestMsgSent ETV
0	2550 25261 0 28709 0 2862.067044644047 923 -1 1 873 897
1	27811 26689 0 28704 0 2862.034720089936 969 -1 1 903 935
2	54500 23063 0 28703 0 2862.030510706902 955 -1 1 937 945
3	77563 22677 0 28706 0 2862.044399961197 957 -1 1 932 944
4	100240 25814 0 28611 0 2849 937 -1 1 853 895
5	126054 107185 6 28717 6 2862.107322113986 3499 1 3499 6123250 14285542250
6	233239 53273 6 28709 6 2862.067044644047 1772 1 1772 1570878 1856254170
7	286512 111358 7 28714 6 2862.09231471267 3624 1 3624 6568500 15871685500
8	397870 55885 7 28704 6 2862.034720089936 1840 1 1840 1693720 2078194440
9	453755 105795 8 28718 6 2862.117306494978 3673 1 3673 6747301 16524140149
10	559550 52065 8 28703 6 2862.030510706902 1884 1 1884 1775670 2230833410
11	611615 108326 9 28715 6 2862.100383345371 3666 1 3666 6721611 16429857821
12	719941 51013 9 28566 6 2844.043787079538 1876 1 1876 1760626 2202543126
13	770954 110788 10 28586 6 2844.120313779844 3476 1 3476 6043026 14005719926
14	881742 55093 10 28568 6 2844.049664400846 1748 1 1748 1528626 1781868374
15	936835 124704 11 28728 6.004209383034 2862.290027187747 3921 1 3921 7689081 20101820761
16	1061539 56150 11 28714 6.004209383034 2862.09231471267 1784 1 1784 1592220 1894211060
17	1117689 125482 12 28729 6.005877321308 2862.301586125375 3929 1 3929 7720485 20225097205
18	1243171 54588 12 28586 6.005877321308 2844.120313779844 1728 1 1728 1493856 1721420064
19	1297759 126175 13 28735 6.008617167133 2864.243087890298 3962 1 3962 7850703 20738940425
20	1423934 56296 13 28718 6.008617167133 2862.117306494978 1789 1 1789 1601155 1910177915
21	1480230 124977 14 28726 6.010395584008 2862.16491673672 3915 1 3915 7665570 20009692890
22	1605207 54532 14 28717 6.010395584008 2862.107322113986 1727 1 1727 1492128 1718434080
23	1659739 126483 15 28715 6.013889254295 2862.100383345371 3973 1 3973 7894351 20912135799
24	1786222 56206 15 28715 6.013889254295 2862.100383345371 1790 1 1790 1602945 1913382015
4	1842428 33 28741 28741 2867 2867 2 -1 0 -1 1
21	1842461 33 28744 28744 2867.783493780163 2867.783493780163 1 3916 3916 3916 15335056
1	1842494 58 28749 28749 2868.034720089936 2868.034720089936 2 1 1 2 2
2	1842552 58 28748 28748 2868.030510706902 2868.030510706902 2 1 1 2 2
7	1842610 128 28749 28749 2868.034720089936 2868.034720089936 4 3625 3628 14506 52606014
8	1842738 128 28749 28749 2868.034720089936 2868.034720089936 4 1841 1844 7370 13579230
9	1842866 128 28748 28748 2868.030510706902 2868.030510706902 4 3674 3677 14702 54037206
10	1842994 132 28748 28748 2868.030510706902 2868.030510706902 4 1885 1888 7546 14235534
3	1843126 58 28751 28751 2868.044399961197 2868.044399961197 2 0 1 1 1
7	1843184 32 28750 28750 2868.034720089936 2868.034720089936 1 3629 3629 3629 13169641
11	1843216 132 28751 28751 2868.044399961197 2868.044399961197 4 3667 3670 14674 53831574
12	1843348 132 28751 28751 2868.044399961197 2868.044399961197 4 1877 1880 7514 14115054
15	1843480 33 28750 28750 2868.034720089936 2868.034720089936 1 3922 3922 3922 15382084
16	1843513 33 28750 28750 2868.034720089936 2868.034720089936 1 1785 1785 1785 3186225
11	1843546 33 28752 28752 2868.044399961197 2868.044399961197 1 3671 3671 3671 13476241
23	1843579 33 28752 28752 2868.044399961197 2868.044399961197 1 3974 3974 3974 15792676
24	1843612 33 28752 28752 2868.044399961197 2868.044399961197 1 1791 1791 1791 3207681
4	1843645 58 28753 28753 2868.050277282505 2868.050277282505 2 0 0 0 0
13	1843703 33 28753 28753 2868.050277282505 2868.050277282505 1 3477 3477 3477 12089529
17	1843736 33 28753 28753 2868.050277282505 2868.050277282505 1 3930 3930 3930 15444900
18	1843769 33 28753 28753 2868.050277282505 2868.050277282505 1 1729 1729 1729 2989441
9	1843802 31 28754 28754 2868.05301712833 2868.05301712833 1 3678 3678 3678 13527684
19	1843833 32 28754 28754 2868.05301712833 2868.05301712833 1 3963 3963 3963 15705369
20	1843865 32 28754 28754 2868.05301712833 2868.05301712833 1 1790 1790 1790 3204100
19	1843897 32 28755 28755 2868.05301712833 2868.05301712833 1 3964 3964 3964 15713296
0	1843929 58 28756 28756 2868.062005693082 2868.062005693082 2 0 1 1 1
5	1843987 32 28756 28756 2868.062005693082 2868.062005693082 1 3500 3500 3500 12250000
21	1844019 33 28756 28756 2868.062005693082 2868.062005693082 1 3917 3917 3917 15342889
22	1844052 33 28756 28756 2868.062005693082 2868.062005693082 1 1728 1728 1728 2985984
23	1844085 33 28757 28757 2868.066293500966 2868.066293500966 1 3975 3975 3975 15800625
23	1844118 33 28758 28758 2868.066906382625 2868.066906382625 1 3976 3976 3976 15808576
5	1844151 32 28759 28759 2868.067044644047 2868.067044644047 1 3501 3501 3501 12257001
11	1844183 32 28760 28760 2868.08713395291 2868.08713395291 1 3672 3672 3672 13483584
21	1844215 33 28759 28759 2868.067044644047 2868.067044644047 1 3918 3918 3918 15350724
22	1844248 33 28759 28759 2868.067044644047 2868.067044644047 1 1729 1729 1729 2989441
23	1844281 32 28760 28760 2868.08713395291 2868.08713395291 1 3977 3977 3977 15816529
24	1844313 32 28760 28760 2868.08713395291 2868.08713395291 1 1792 1792 1792 3211264
19	1844345 33 28761 28761 2868.088903118374 2868.088903118374 1 3965 3965 3965 15721225
vector 25 RAFT_Network.server[0] electionsMeanTime ETV
vector 26 RAFT_Network.server[3] totAppendEntriesMsgSent ETV
3	1844496 58 28762 28762 2868.095344394406 2868.095344394406 2 1 2 3 5
11	1844554 132 28762 28762 2868.095344394406 2868.095344394406 4 3673 3676 14698 54007806
23	1844686 33 28762 28762 2868.095344394406 2868.095344394406 1 3978 3978 3978 15824484
25	1844719 44 28762 28762 2868.095344394406 2868.095344394406 1 2862.0953443944 2862.0953443944 2862.0953443944 8191589.7604041
26	1844763 120 28762 28762 2868.095344394406 2868.095344394406 4 1 4 10 30
vector 27 RAFT_Network.server[4] totReplyToAppendEntriesMsgSent ETV
vector 28 RAFT_Network.server[2] totReplyToAppendEntriesMsgSent ETV
vector 29 RAFT_Network.server[0] totReplyToAppendEntriesMsgSent ETV
vector 30 RAFT_Network.server[1] totReplyToAppendEntriesMsgSent ETV
vector 31 RAFT_Network.client[4] responseTime ETV
vector 32 RAFT_Network.client[2] responseTime ETV
vector 33 RAFT_Network.client[3] responseTime ETV
vector 34 RAFT_Network.client[0] responseTime ETV
vector 35 RAFT_Network.client[1] responseTime ETV
vector 36 RAFT_Network.server[4] totAppendEntriesMsgSent ETV
vector 37 RAFT_Network.server[3] totReplyToAppendEntriesMsgSent ETV
0	1845545 18824 29026 53982 2892.111617299722 5000 653 -1 1 634 642
1	1864369 18506 28779 53982 2868.162399029387 5000 649 -1 1 595 619
2	1882875 19080 28765 53982 2868.103961561539 5000 667 -1 1 623 643
3	1901955 17974 29012 53982 2887 5000 667 -1 2 622 648
4	1919929 19038 29025 53982 2892.101221715714 5000 663 -1 2 636 656
5	1938967 84210 28766 53938 2868.107322113986 4996.408646700319 2637 3502 6138 12710340 62791929318
6	2023177 40832 30857 53920 3046.289879424778 4996.333666504316 1276 1773 3048 3075798 7587340354
7	2064009 81360 28767 53935 2868.111454596178 4996.390272761083 2546 3630 6175 12481765 62567141645
8	2145369 38780 30861 53921 3046.30859179738 4996.336044676269 1212 1845 3056 2970006 7426362946
9	2184149 83579 28765 53939 2868.103961561539 4996.418631081311 2624 3679 6302 13095072 66856558816
10	2267728 41712 30924 53918 3052.304117226364 4996.331835293235 1264 1889 3152 3185912 8198381736
11	2309440 84870 28788 53933 2870.095344394406 4996.388458539243 2660 3677 6336 13317290 68241436830
12	2394310 39636 30858 53916 3046.295500059231 4996.323218126102 1264 1881 3144 3175800 8147488040
13	2433946 102937 28763 53900 2868.101221715714 4990.568207985644 3135 3478 6612 15816075 82359721895
14	2536883 42240 29025 53856 2892.101221715714 4990.323270920308 1280 1749 3028 3057280 7477075840
15	2579123 93465 28767 53950 2868.111454596178 4996.787116903647 2836 3923 6758 15145658 82786190734
16	2672588 39996 28767 53935 2868.111454596178 4996.390272761083 1212 1786 2997 2898498 7080121210
17	2712584 138959 28763 53980 2868.101221715714 4999.556992414543 4219 3931 8149 25482760 160174039670
18	2851543 46411 28764 53900 2868.102785884156 4990.568207985644 1409 1730 3138 3429506 8580522564
19	2897954 92651 28765 53972 2868.103961561539 4998.992186881913 2828 3966 6793 15213226 83724312994
20	2990605 40531 28770 53939 2868.117306494978 4996.418631081311 1240 1791 3030 2989020 7363917940
21	3031136 94050 28766 53943 2868.107322113986 4996.431538596989 2863 3919 6781 15317050 83901829732
22	3125186 40713 28766 53938 2868.107322113986 4996.408646700319 1239 1730 2968 2910411 6995056579
23	3165899 94616 28769 53963 2868.117237934175 4997.853733973994 2904 3979 6882 15770172 87680757076
24	3260515 40548 28827 53933 2872.617850815834 4996.388458539243 1254 1793 3046 3034053 7505219051
25	3301063 42 29032 29032 2892.27948384077 2892.27948384077 1 0.178262125056 0.178262125056 0.178262125056 0.031777385229481
26	3301105 1607 28788 28977 2870.095344394406 2886.095344394406 52 5 56 1586 60086
27	3302712 425 28763 28979 2868.101221715714 2886.101221715714 14 1 14 105 1015
28	3303137 3732 28765 30823 2868.103961561539 3040.885470788572 120 1 120 7260 583220
29	3306869 3796 28768 30819 2868.112950126291 3040.789879424778 122 1 122 7503 612745
30	3310665 3688 28779 30822 2868.162399029387 3040.80859179738 122 1 122 7503 612745
31	3314353 1214 28835 30833 2872.891339154494 3041.17012378948 37 4.436439521462 2864.4239672542 3032.7027518892 8205749.2489635
32	3315567 1214 28836 30834 2872.898179202834 3041.17696383782 37 4.436439521462 2866.5671701028 3034.8459547378 8218031.9254943
33	3316781 1208 28838 30839 2872.903397724379 3041.182182359365 36 4.436439521462 2862.5715710594 3030.8503556944 8195237.3373401
34	3317989 1209 28890 30835 2877.399005304385 3041.177789939371 36 4.436439521462 2869.3994249196 3033.1782095546 8234257.3945123
35	3319198 1209 28891 30836 2877.400306987225 3041.179091622211 36 4.436439521462 2868.9164342266 3032.6952188616 8231485.8413589
36	3320407 13284 29032 30818 2892.27948384077 3040.77948384077 432 1 432 93528 26967240
37	3333691 2781 29034 30820 2892.295500059231 3040.795500059231 90 1 90 4095 247065

