version 2
run StaticNetwork-0-20220316-11:12:40-9004
attr configname StaticNetwork
attr datetime 20220316-11:12:40
attr experiment StaticNetwork
attr inifile omnetpp.ini
attr iterationvars "$0=1, $1=7, $2=0"
attr iterationvarsf 1,7,0-
attr measurement "$0=1, $1=7, $2=0"
attr network RAFT_Network
attr processid 9004
attr repetition 0
attr replication #0
attr resultdir results
attr runnumber 0
attr seedset 0
param **.failureProbability 1
param **.recoveryProbability 7
param **.messageLossProbability 0
param **.clients_number 5
param **.cloud.propDelay 0.1s

vector 0 RAFT_Network.server[0] serverState ETV
vector 1 RAFT_Network.server[1] serverState ETV
vector 2 RAFT_Network.server[2] serverState ETV
vector 3 RAFT_Network.server[3] serverState ETV
vector 4 RAFT_Network.server[4] serverState ETV
0	0	0	0
1	0	0	0
2	0	0	0
3	0	0	0
4	0	0	0
vector 5 RAFT_Network.server[0] totMsgSent ETV
vector 6 RAFT_Network.server[0] totRequestVoteMsgSent ETV
vector 7 RAFT_Network.server[4] totMsgReceived ETV
vector 8 RAFT_Network.server[4] totMsgSent ETV
vector 9 RAFT_Network.server[4] totReplyToClientRequestMsgSent ETV
vector 10 RAFT_Network.server[1] totMsgReceived ETV
vector 11 RAFT_Network.server[1] totMsgSent ETV
vector 12 RAFT_Network.server[1] totReplyToClientRequestMsgSent ETV
vector 13 RAFT_Network.server[3] totMsgReceived ETV
vector 14 RAFT_Network.server[3] totMsgSent ETV
vector 15 RAFT_Network.server[3] totReplyToClientRequestMsgSent ETV
vector 16 RAFT_Network.server[2] totMsgReceived ETV
vector 17 RAFT_Network.server[2] totMsgSent ETV
vector 18 RAFT_Network.server[2] totReplyToClientRequestMsgSent ETV
vector 19 RAFT_Network.server[0] totMsgReceived ETV
vector 20 RAFT_Network.server[0] totAppendEntriesMsgSent ETV
vector 21 RAFT_Network.server[4] totReplyToAppendEntriesMsgSent ETV
vector 22 RAFT_Network.server[1] totReplyToAppendEntriesMsgSent ETV
vector 23 RAFT_Network.server[3] totReplyToAppendEntriesMsgSent ETV
vector 24 RAFT_Network.server[2] totReplyToAppendEntriesMsgSent ETV
vector 25 RAFT_Network.server[0] totReplyToClientRequestMsgSent ETV
vector 26 RAFT_Network.client[3] responseTime ETV
vector 27 RAFT_Network.client[1] responseTime ETV
vector 28 RAFT_Network.client[0] responseTime ETV
vector 29 RAFT_Network.client[4] responseTime ETV
vector 30 RAFT_Network.client[2] responseTime ETV
vector 31 RAFT_Network.server[2] totRequestVoteMsgSent ETV
vector 32 RAFT_Network.server[2] totAppendEntriesMsgSent ETV
vector 33 RAFT_Network.server[0] totReplyToAppendEntriesMsgSent ETV
0	11	2.264876189682	0
0	11	2.264876189682	1
0	17	2.398184449391	1
0	17	2.398184449391	2
0	392	27	2
0	392	27	-1
0	618	43	-1
0	618	43	0
0	656	44.632229962877	0
0	656	44.632229962877	0
0	691	48.897106152559	0
0	691	48.897106152559	1
0	712	51.161982342241	1
0	712	51.161982342241	1
0	717	51.29529060195	1
0	717	51.29529060195	2
0	1433	100	2
1	13	2.30466991491	0
1	13	2.30466991491	0
1	413	30.406436652555	0
1	413	30.406436652555	0
1	619	43	0
1	619	43	-1
1	979	71	-1
1	979	71	0
1	985	71.335084327178	0
1	985	71.335084327178	0
1	1055	76	0
1	1055	76	-1
1	1190	84	-1
1	1190	84	0
1	1433	100	0
2	15	2.327672727584	0
2	15	2.327672727584	0
2	412	30.357586331235	0
2	412	30.357586331235	1
2	418	30.539249752273	1
2	418	30.539249752273	2
2	688	48	2
2	688	48	-1
2	993	72	-1
2	993	72	0
2	1005	73.358087139852	0
2	1005	73.358087139852	0
2	1433	100	0
3	14	2.311037346256	0
3	14	2.311037346256	0
3	36	4	0
3	36	4	-1
3	78	8	-1
3	78	8	0
3	133	11	0
3	133	11	-1
3	179	13	-1
3	179	13	0
3	311	21	0
3	311	21	-1
3	445	33	-1
3	445	33	0
3	487	34.650425973375	0
3	487	34.650425973375	0
3	694	48.943267309133	0
3	694	48.943267309133	0
3	715	51.208143498815	0
3	715	51.208143498815	0
3	764	54	0
3	764	54	-1
3	877	64	-1
3	877	64	0
3	1433	100	0
4	12	2.304236246681	0
4	12	2.304236246681	0
4	417	30.523331945231	0
4	417	30.523331945231	0
4	673	46	0
4	673	46	-1
4	711	51	-1
4	711	51	0
4	713	51.20134239924	0
4	713	51.20134239924	0
4	1433	100	0
5	11	2.264876189682	1
5	11	2.264876189682	2
5	11	2.264876189682	3
5	11	2.264876189682	4
5	17	2.398184449391	5
5	17	2.398184449391	6
5	17	2.398184449391	7
5	17	2.398184449391	8
5	38	4.398184449391	9
5	38	4.398184449391	10
5	38	4.398184449391	11
5	38	4.398184449391	12
5	56	6.398184449391	13
5	56	6.398184449391	14
5	56	6.398184449391	15
5	56	6.398184449391	16
5	94	8.398184449391	17
5	94	8.398184449391	18
5	94	8.398184449391	19
5	94	8.398184449391	20
5	121	10.398184449391	21
5	121	10.398184449391	22
5	121	10.398184449391	23
5	121	10.398184449391	24
5	135	11.398184449391	25
5	135	11.398184449391	26
5	135	11.398184449391	27
5	135	11.398184449391	28
5	141	11.5314927091	29
5	141	11.5314927091	30
5	141	11.5314927091	31
5	141	11.5314927091	32
5	141	11.5314927091	33
5	168	12.398184449391	34
5	168	12.398184449391	35
5	168	12.398184449391	36
5	168	12.398184449391	37
5	186	14.398184449391	38
5	186	14.398184449391	39
5	186	14.398184449391	40
5	186	14.398184449391	41
5	200	15.898184449391	42
5	200	15.898184449391	43
5	200	15.898184449391	44
5	200	15.898184449391	45
5	211	16.0314927091	46
5	211	16.0314927091	47
5	211	16.0314927091	48
5	211	16.0314927091	49
5	211	16.0314927091	50
5	227	16.398184449391	51
5	227	16.398184449391	52
5	227	16.398184449391	53
5	227	16.398184449391	54
5	253	18.398184449391	55
5	253	18.398184449391	56
5	253	18.398184449391	57
5	253	18.398184449391	58
5	272	20.398184449391	59
5	272	20.398184449391	60
5	272	20.398184449391	61
5	272	20.398184449391	62
5	273	20.398184449391	63
5	273	20.398184449391	64
5	273	20.398184449391	65
5	273	20.398184449391	66
5	284	20.5314927091	67
5	284	20.5314927091	68
5	284	20.5314927091	69
5	284	20.5314927091	70
5	284	20.5314927091	71
5	320	22.398184449391	72
5	320	22.398184449391	73
5	320	22.398184449391	74
5	320	22.398184449391	75
5	338	24.398184449391	76
5	338	24.398184449391	77
5	338	24.398184449391	78
5	338	24.398184449391	79
5	346	24.898184449391	80
5	346	24.898184449391	81
5	346	24.898184449391	82
5	346	24.898184449391	83
5	357	25.0314927091	84
5	357	25.0314927091	85
5	357	25.0314927091	86
5	357	25.0314927091	87
5	357	25.0314927091	88
5	384	26.398184449391	89
5	384	26.398184449391	90
5	384	26.398184449391	91
5	384	26.398184449391	92
5	630	44.132229962877	93
5	656	44.632229962877	94
5	676	46.632229962877	95
5	691	48.897106152559	96
5	691	48.897106152559	97
5	691	48.897106152559	98
5	691	48.897106152559	99
5	712	51.161982342241	100
5	712	51.161982342241	101
5	712	51.161982342241	102
5	712	51.161982342241	103
5	717	51.29529060195	104
5	717	51.29529060195	105
5	717	51.29529060195	106
5	717	51.29529060195	107
5	753	53.29529060195	108
5	753	53.29529060195	109
5	753	53.29529060195	110
5	753	53.29529060195	111
5	771	55.29529060195	112
5	771	55.29529060195	113
5	771	55.29529060195	114
5	771	55.29529060195	115
5	777	55.79529060195	116
5	777	55.79529060195	117
5	777	55.79529060195	118
5	777	55.79529060195	119
5	793	57.29529060195	120
5	793	57.29529060195	121
5	793	57.29529060195	122
5	793	57.29529060195	123
5	809	59.29529060195	124
5	809	59.29529060195	125
5	809	59.29529060195	126
5	809	59.29529060195	127
5	820	60.29529060195	128
5	820	60.29529060195	129
5	820	60.29529060195	130
5	849	61.29529060195	131
5	849	61.29529060195	132
5	849	61.29529060195	133
5	849	61.29529060195	134
5	868	63.29529060195	135
5	868	63.29529060195	136
5	868	63.29529060195	137
5	868	63.29529060195	138
5	879	64.79529060195	139
5	879	64.79529060195	140
5	879	64.79529060195	141
5	879	64.79529060195	142
5	885	64.939029025318	143
5	885	64.939029025318	144
5	885	64.939029025318	145
5	898	65.29529060195	146
5	898	65.29529060195	147
5	898	65.29529060195	148
5	898	65.29529060195	149
5	920	67.29529060195	150
5	920	67.29529060195	151
5	920	67.29529060195	152
5	920	67.29529060195	153
5	943	69.29529060195	154
5	943	69.29529060195	155
5	943	69.29529060195	156
5	943	69.29529060195	157
5	944	69.29529060195	158
5	944	69.29529060195	159
5	944	69.29529060195	160
5	944	69.29529060195	161
5	955	69.439029025318	162
5	955	69.439029025318	163
5	955	69.439029025318	164
5	955	69.439029025318	165
5	983	71.29529060195	166
5	983	71.29529060195	167
5	983	71.29529060195	168
5	983	71.29529060195	169
5	1001	73.29529060195	170
5	1001	73.29529060195	171
5	1001	73.29529060195	172
5	1001	73.29529060195	173
5	1010	73.79529060195	174
5	1010	73.79529060195	175
5	1010	73.79529060195	176
5	1010	73.79529060195	177
5	1016	73.928598861659	178
5	1016	73.928598861659	179
5	1016	73.928598861659	180
5	1016	73.928598861659	181
5	1045	75.29529060195	182
5	1045	75.29529060195	183
5	1045	75.29529060195	184
5	1045	75.29529060195	185
5	1071	77.29529060195	186
5	1071	77.29529060195	187
5	1071	77.29529060195	188
5	1071	77.29529060195	189
5	1084	78.29529060195	190
5	1084	78.29529060195	191
5	1084	78.29529060195	192
5	1084	78.29529060195	193
5	1090	78.439029025318	194
5	1090	78.439029025318	195
5	1090	78.439029025318	196
5	1090	78.439029025318	197
5	1090	78.439029025318	198
5	1117	79.29529060195	199
5	1117	79.29529060195	200
5	1117	79.29529060195	201
5	1117	79.29529060195	202
5	1135	81.29529060195	203
5	1135	81.29529060195	204
5	1135	81.29529060195	205
5	1135	81.29529060195	206
5	1148	82.79529060195	207
5	1148	82.79529060195	208
5	1148	82.79529060195	209
5	1148	82.79529060195	210
5	1154	82.939029025318	211
5	1154	82.939029025318	212
5	1154	82.939029025318	213
5	1154	82.939029025318	214
5	1154	82.939029025318	215
5	1174	83.29529060195	216
5	1174	83.29529060195	217
5	1174	83.29529060195	218
5	1174	83.29529060195	219
5	1199	85.29529060195	220
5	1199	85.29529060195	221
5	1199	85.29529060195	222
5	1199	85.29529060195	223
5	1218	87.29529060195	224
5	1218	87.29529060195	225
5	1218	87.29529060195	226
5	1218	87.29529060195	227
5	1219	87.29529060195	228
5	1219	87.29529060195	229
5	1219	87.29529060195	230
5	1219	87.29529060195	231
5	1230	87.428598861659	232
5	1230	87.428598861659	233
5	1230	87.428598861659	234
5	1230	87.428598861659	235
5	1230	87.428598861659	236
5	1266	89.29529060195	237
5	1266	89.29529060195	238
5	1266	89.29529060195	239
5	1266	89.29529060195	240
5	1285	91.29529060195	241
5	1285	91.29529060195	242
5	1285	91.29529060195	243
5	1285	91.29529060195	244
5	1294	91.79529060195	245
5	1294	91.79529060195	246
5	1294	91.79529060195	247
5	1294	91.79529060195	248
5	1300	91.928598861659	249
5	1300	91.928598861659	250
5	1300	91.928598861659	251
5	1300	91.928598861659	252
5	1300	91.928598861659	253
5	1333	93.29529060195	254
5	1333	93.29529060195	255
5	1333	93.29529060195	256
5	1333	93.29529060195	257
5	1352	95.29529060195	258
5	1352	95.29529060195	259
5	1352	95.29529060195	260
5	1352	95.29529060195	261
5	1366	96.29529060195	262
5	1366	96.29529060195	263
5	1366	96.29529060195	264
5	1366	96.29529060195	265
5	1372	96.428598861659	266
5	1372	96.428598861659	267
5	1372	96.428598861659	268
5	1372	96.428598861659	269
5	1372	96.428598861659	270
5	1400	97.29529060195	271
5	1400	97.29529060195	272
5	1400	97.29529060195	273
5	1400	97.29529060195	274
5	1419	99.29529060195	275
5	1419	99.29529060195	276
5	1419	99.29529060195	277
5	1419	99.29529060195	278
6	11	2.264876189682	1
6	11	2.264876189682	2
6	11	2.264876189682	3
6	11	2.264876189682	4
6	691	48.897106152559	5
6	691	48.897106152559	6
6	691	48.897106152559	7
6	691	48.897106152559	8
6	712	51.161982342241	9
6	712	51.161982342241	10
6	712	51.161982342241	11
6	712	51.161982342241	12
7	12	2.304236246681	1
7	20	2.43754450639	2
7	39	4.43754450639	3
7	57	6.43754450639	4
7	87	8.20569998067	5
7	97	8.43754450639	6
7	122	10.43754450639	7
7	136	11.43754450639	8
7	169	12.43754450639	9
7	187	14.43754450639	10
7	201	15.93754450639	11
7	230	16.43754450639	12
7	254	18.43754450639	13
7	274	20.43754450639	14
7	275	20.43754450639	15
7	321	22.43754450639	16
7	339	24.43754450639	17
7	347	24.93754450639	18
7	385	26.43754450639	19
7	417	30.523331945231	20
7	423	30.704995366269	21
7	440	32.704995366269	22
7	454	33.342771223172	23
7	457	33.37557621361	24
7	467	33.565670416495	25
7	489	34.704995366269	26
7	506	35.204995366269	27
7	531	36.704995366269	28
7	549	38.704995366269	29
7	566	39.704995366269	30
7	591	40.704995366269	31
7	616	42.704995366269	32
7	634	44.204995366269	33
7	661	44.704995366269	34
7	680	46.704995366269	35
7	692	48.936466209558	36
7	713	51.20134239924	37
7	719	51.334650658949	38
7	755	53.334650658949	39
7	772	55.334650658949	40
7	778	55.834650658949	41
7	794	57.334650658949	42
7	810	59.334650658949	43
7	835	60.670537248609	44
7	847	61.252106183895	45
7	850	61.334650658949	46
7	869	63.334650658949	47
7	880	64.834650658949	48
7	900	65.334650658949	49
7	921	67.334650658949	50
7	945	69.334650658949	51
7	946	69.334650658949	52
7	984	71.334650658949	53
7	1002	73.334650658949	54
7	1011	73.834650658949	55
7	1046	75.334650658949	56
7	1072	77.334650658949	57
7	1085	78.334650658949	58
7	1118	79.334650658949	59
7	1136	81.334650658949	60
7	1149	82.834650658949	61
7	1177	83.334650658949	62
7	1200	85.334650658949	63
7	1220	87.334650658949	64
7	1221	87.334650658949	65
7	1267	89.334650658949	66
7	1286	91.334650658949	67
7	1295	91.834650658949	68
7	1334	93.334650658949	69
7	1353	95.334650658949	70
7	1367	96.334650658949	71
7	1401	97.334650658949	72
7	1420	99.334650658949	73
8	12	2.304236246681	1
8	20	2.43754450639	2
8	39	4.43754450639	3
8	57	6.43754450639	4
8	97	8.43754450639	5
8	122	10.43754450639	6
8	136	11.43754450639	7
8	169	12.43754450639	8
8	187	14.43754450639	9
8	201	15.93754450639	10
8	230	16.43754450639	11
8	254	18.43754450639	12
8	274	20.43754450639	13
8	275	20.43754450639	14
8	321	22.43754450639	15
8	339	24.43754450639	16
8	347	24.93754450639	17
8	385	26.43754450639	18
8	417	30.523331945231	19
8	423	30.704995366269	20
8	440	32.704995366269	21
8	489	34.704995366269	22
8	506	35.204995366269	23
8	531	36.704995366269	24
8	549	38.704995366269	25
8	566	39.704995366269	26
8	591	40.704995366269	27
8	616	42.704995366269	28
8	634	44.204995366269	29
8	661	44.704995366269	30
8	713	51.20134239924	31
8	719	51.334650658949	32
8	755	53.334650658949	33
8	772	55.334650658949	34
8	778	55.834650658949	35
8	794	57.334650658949	36
8	810	59.334650658949	37
8	850	61.334650658949	38
8	869	63.334650658949	39
8	880	64.834650658949	40
8	900	65.334650658949	41
8	921	67.334650658949	42
8	945	69.334650658949	43
8	946	69.334650658949	44
8	984	71.334650658949	45
8	1002	73.334650658949	46
8	1011	73.834650658949	47
8	1046	75.334650658949	48
8	1072	77.334650658949	49
8	1085	78.334650658949	50
8	1118	79.334650658949	51
8	1136	81.334650658949	52
8	1149	82.834650658949	53
8	1177	83.334650658949	54
8	1200	85.334650658949	55
8	1220	87.334650658949	56
8	1221	87.334650658949	57
8	1267	89.334650658949	58
8	1286	91.334650658949	59
8	1295	91.834650658949	60
8	1334	93.334650658949	61
8	1353	95.334650658949	62
8	1367	96.334650658949	63
8	1401	97.334650658949	64
8	1420	99.334650658949	65
9	12	2.304236246681	1
9	417	30.523331945231	2
9	713	51.20134239924	3
10	13	2.30466991491	1
10	21	2.437978174619	2
10	40	4.437978174619	3
10	58	6.437978174619	4
10	90	8.227008088838	5
10	98	8.437978174619	6
10	123	10.437978174619	7
10	137	11.437978174619	8
10	170	12.437978174619	9
10	188	14.437978174619	10
10	202	15.937978174619	11
10	231	16.437978174619	12
10	255	18.437978174619	13
10	276	20.437978174619	14
10	277	20.437978174619	15
10	322	22.437978174619	16
10	340	24.437978174619	17
10	348	24.937978174619	18
10	386	26.437978174619	19
10	413	30.406436652555	20
10	419	30.588100073593	21
10	436	32.588100073593	22
10	484	34.588100073593	23
10	497	35.088100073593	24
10	526	36.588100073593	25
10	544	38.588100073593	26
10	557	39.588100073593	27
10	586	40.588100073593	28
10	600	41.938769653518	29
10	611	42.588100073593	30
10	629	44.088100073593	31
10	655	44.588100073593	32
10	675	46.588100073593	33
10	693	48.936899877787	34
10	714	51.201776067469	35
10	720	51.335084327178	36
10	741	52.540454562511	37
10	743	52.704486686502	38
10	756	53.335084327178	39
10	773	55.335084327178	40
10	779	55.835084327178	41
10	795	57.335084327178	42
10	811	59.335084327178	43
10	822	60.335084327178	44
10	851	61.335084327178	45
10	870	63.335084327178	46
10	881	64.835084327178	47
10	901	65.335084327178	48
10	922	67.335084327178	49
10	936	68.481587493179	50
10	947	69.335084327178	51
10	948	69.335084327178	52
10	985	71.335084327178	53
10	1003	73.335084327178	54
10	1012	73.835084327178	55
10	1047	75.335084327178	56
10	1073	77.335084327178	57
10	1086	78.335084327178	58
10	1119	79.335084327178	59
10	1137	81.335084327178	60
10	1150	82.835084327178	61
10	1178	83.335084327178	62
10	1201	85.335084327178	63
10	1222	87.335084327178	64
10	1223	87.335084327178	65
10	1268	89.335084327178	66
10	1287	91.335084327178	67
10	1296	91.835084327178	68
10	1335	93.335084327178	69
10	1354	95.335084327178	70
10	1368	96.335084327178	71
10	1402	97.335084327178	72
10	1421	99.335084327178	73
11	13	2.30466991491	1
11	21	2.437978174619	2
11	40	4.437978174619	3
11	58	6.437978174619	4
11	98	8.437978174619	5
11	123	10.437978174619	6
11	137	11.437978174619	7
11	170	12.437978174619	8
11	188	14.437978174619	9
11	202	15.937978174619	10
11	231	16.437978174619	11
11	255	18.437978174619	12
11	276	20.437978174619	13
11	277	20.437978174619	14
11	322	22.437978174619	15
11	340	24.437978174619	16
11	348	24.937978174619	17
11	386	26.437978174619	18
11	413	30.406436652555	19
11	419	30.588100073593	20
11	436	32.588100073593	21
11	484	34.588100073593	22
11	497	35.088100073593	23
11	526	36.588100073593	24
11	544	38.588100073593	25
11	557	39.588100073593	26
11	586	40.588100073593	27
11	611	42.588100073593	28
11	985	71.335084327178	29
11	1003	73.335084327178	30
11	1012	73.835084327178	31
11	1047	75.335084327178	32
11	1201	85.335084327178	33
11	1222	87.335084327178	34
11	1223	87.335084327178	35
11	1268	89.335084327178	36
11	1287	91.335084327178	37
11	1296	91.835084327178	38
11	1335	93.335084327178	39
11	1354	95.335084327178	40
11	1368	96.335084327178	41
11	1402	97.335084327178	42
11	1421	99.335084327178	43
12	13	2.30466991491	1
12	413	30.406436652555	2
13	14	2.311037346256	1
13	22	2.444345605965	2
13	41	4.444345605965	3
13	59	6.444345605965	4
13	99	8.444345605965	5
13	124	10.444345605965	6
13	138	11.444345605965	7
13	171	12.444345605965	8
13	189	14.444345605965	9
13	203	15.944345605965	10
13	232	16.444345605965	11
13	256	18.444345605965	12
13	278	20.444345605965	13
13	279	20.444345605965	14
13	323	22.444345605965	15
13	341	24.444345605965	16
13	349	24.944345605965	17
13	387	26.444345605965	18
13	416	30.468762552337	19
13	422	30.650425973375	20
13	439	32.650425973375	21
13	463	33.527866729023	22
13	487	34.650425973375	23
13	500	35.150425973375	24
13	529	36.650425973375	25
13	547	38.650425973375	26
13	560	39.650425973375	27
13	589	40.650425973375	28
13	614	42.650425973375	29
13	631	44.150425973375	30
13	657	44.650425973375	31
13	677	46.650425973375	32
13	694	48.943267309133	33
13	715	51.208143498815	34
13	721	51.341451758524	35
13	744	52.753943129215	36
13	757	53.341451758524	37
13	774	55.341451758524	38
13	780	55.841451758524	39
13	796	57.341451758524	40
13	812	59.341451758524	41
13	823	60.341451758524	42
13	834	60.606671482243	43
13	852	61.341451758524	44
13	871	63.341451758524	45
13	882	64.841451758524	46
13	902	65.341451758524	47
13	923	67.341451758524	48
13	949	69.341451758524	49
13	950	69.341451758524	50
13	986	71.341451758524	51
13	1004	73.341451758524	52
13	1013	73.841451758524	53
13	1048	75.341451758524	54
13	1061	76.573866491805	55
13	1074	77.341451758524	56
13	1087	78.341451758524	57
13	1120	79.341451758524	58
13	1138	81.341451758524	59
13	1151	82.841451758524	60
13	1179	83.341451758524	61
13	1202	85.341451758524	62
13	1224	87.341451758524	63
13	1225	87.341451758524	64
13	1269	89.341451758524	65
13	1288	91.341451758524	66
13	1297	91.841451758524	67
13	1336	93.341451758524	68
13	1355	95.341451758524	69
13	1369	96.341451758524	70
13	1403	97.341451758524	71
13	1422	99.341451758524	72
14	14	2.311037346256	1
14	22	2.444345605965	2
14	99	8.444345605965	3
14	124	10.444345605965	4
14	189	14.444345605965	5
14	203	15.944345605965	6
14	232	16.444345605965	7
14	256	18.444345605965	8
14	278	20.444345605965	9
14	279	20.444345605965	10
14	487	34.650425973375	11
14	500	35.150425973375	12
14	529	36.650425973375	13
14	547	38.650425973375	14
14	560	39.650425973375	15
14	589	40.650425973375	16
14	614	42.650425973375	17
14	631	44.150425973375	18
14	657	44.650425973375	19
14	677	46.650425973375	20
14	694	48.943267309133	21
14	715	51.208143498815	22
14	721	51.341451758524	23
14	757	53.341451758524	24
14	882	64.841451758524	25
14	902	65.341451758524	26
14	923	67.341451758524	27
14	949	69.341451758524	28
14	950	69.341451758524	29
14	986	71.341451758524	30
14	1004	73.341451758524	31
14	1013	73.841451758524	32
14	1048	75.341451758524	33
14	1074	77.341451758524	34
14	1087	78.341451758524	35
14	1120	79.341451758524	36
14	1138	81.341451758524	37
14	1151	82.841451758524	38
14	1179	83.341451758524	39
14	1202	85.341451758524	40
14	1224	87.341451758524	41
14	1225	87.341451758524	42
14	1269	89.341451758524	43
14	1288	91.341451758524	44
14	1297	91.841451758524	45
14	1336	93.341451758524	46
14	1355	95.341451758524	47
14	1369	96.341451758524	48
14	1403	97.341451758524	49
14	1422	99.341451758524	50
15	14	2.311037346256	1
15	694	48.943267309133	2
15	715	51.208143498815	3
16	15	2.327672727584	1
16	23	2.460980987293	2
16	42	4.460980987293	3
16	60	6.460980987293	4
16	88	8.217260855577	5
16	100	8.460980987293	6
16	125	10.460980987293	7
16	139	11.460980987293	8
16	172	12.460980987293	9
16	190	14.460980987293	10
16	204	15.960980987293	11
16	234	16.460980987293	12
16	257	18.460980987293	13
16	280	20.460980987293	14
16	281	20.460980987293	15
16	324	22.460980987293	16
16	342	24.460980987293	17
16	350	24.960980987293	18
16	388	26.460980987293	19
16	414	30.433989076889	20
16	418	30.539249752273	21
16	420	30.615652497927	22
16	424	30.720913173311	23
16	437	32.615652497927	24
16	441	32.720913173311	25
16	466	33.561135235454	26
16	470	33.629305451912	27
16	471	33.694915432788	28
16	482	34.075103838558	29
16	485	34.615652497927	30
16	488	34.65334520683	31
16	490	34.720913173311	32
16	498	35.115652497927	33
16	501	35.15334520683	34
16	507	35.220913173311	35
16	514	35.444244136209	36
16	515	35.477049126647	37
16	518	35.624320773619	38
16	519	35.667143329532	39
16	527	36.615652497927	40
16	530	36.65334520683	41
16	532	36.720913173311	42
16	545	38.615652497927	43
16	548	38.65334520683	44
16	550	38.720913173311	45
16	558	39.615652497927	46
16	561	39.65334520683	47
16	567	39.720913173311	48
16	574	39.944244136209	49
16	575	39.977049126647	50
16	583	40.124320773619	51
16	584	40.167143329532	52
16	587	40.615652497927	53
16	590	40.65334520683	54
16	592	40.720913173311	55
16	609	42.296286180139	56
16	612	42.615652497927	57
16	615	42.65334520683	58
16	617	42.720913173311	59
16	632	44.15334520683	60
16	633	44.195026500779	61
16	640	44.220913173311	62
16	649	44.485925430158	63
16	650	44.518730420596	64
16	653	44.54479249949	65
16	658	44.65334520683	66
16	659	44.666002067568	67
16	660	44.695026500779	68
16	662	44.708824623481	69
16	663	44.720913173311	70
16	678	46.65334520683	71
16	679	46.695026500779	72
16	695	48.959902690461	73
16	716	51.224778880143	74
16	722	51.358087139852	75
16	738	52.485925430158	76
16	739	52.518730420596	77
16	758	53.358087139852	78
16	775	55.358087139852	79
16	781	55.858087139852	80
16	797	57.358087139852	81
16	813	59.358087139852	82
16	826	60.358087139852	83
16	831	60.485925430158	84
16	853	61.358087139852	85
16	872	63.358087139852	86
16	883	64.858087139852	87
16	903	65.358087139852	88
16	924	67.358087139852	89
16	951	69.358087139852	90
16	952	69.358087139852	91
16	987	71.358087139852	92
16	1005	73.358087139852	93
16	1014	73.858087139852	94
16	1049	75.358087139852	95
16	1075	77.358087139852	96
16	1088	78.358087139852	97
16	1121	79.358087139852	98
16	1139	81.358087139852	99
16	1152	82.858087139852	100
16	1181	83.358087139852	101
16	1203	85.358087139852	102
16	1226	87.358087139852	103
16	1227	87.358087139852	104
16	1270	89.358087139852	105
16	1289	91.358087139852	106
16	1298	91.858087139852	107
16	1337	93.358087139852	108
16	1356	95.358087139852	109
16	1370	96.358087139852	110
16	1404	97.358087139852	111
16	1423	99.358087139852	112
17	15	2.327672727584	1
17	23	2.460980987293	2
17	42	4.460980987293	3
17	60	6.460980987293	4
17	100	8.460980987293	5
17	125	10.460980987293	6
17	139	11.460980987293	7
17	172	12.460980987293	8
17	190	14.460980987293	9
17	204	15.960980987293	10
17	234	16.460980987293	11
17	257	18.460980987293	12
17	280	20.460980987293	13
17	281	20.460980987293	14
17	324	22.460980987293	15
17	342	24.460980987293	16
17	350	24.960980987293	17
17	388	26.460980987293	18
17	412	30.357586331235	19
17	412	30.357586331235	20
17	412	30.357586331235	21
17	412	30.357586331235	22
17	418	30.539249752273	23
17	418	30.539249752273	24
17	418	30.539249752273	25
17	418	30.539249752273	26
17	435	32.539249752273	27
17	435	32.539249752273	28
17	435	32.539249752273	29
17	435	32.539249752273	30
17	483	34.539249752273	31
17	483	34.539249752273	32
17	483	34.539249752273	33
17	483	34.539249752273	34
17	496	35.039249752273	35
17	496	35.039249752273	36
17	496	35.039249752273	37
17	496	35.039249752273	38
17	501	35.15334520683	39
17	501	35.15334520683	40
17	501	35.15334520683	41
17	501	35.15334520683	42
17	525	36.539249752273	43
17	525	36.539249752273	44
17	525	36.539249752273	45
17	525	36.539249752273	46
17	543	38.539249752273	47
17	543	38.539249752273	48
17	543	38.539249752273	49
17	543	38.539249752273	50
17	556	39.539249752273	51
17	556	39.539249752273	52
17	556	39.539249752273	53
17	556	39.539249752273	54
17	561	39.65334520683	55
17	561	39.65334520683	56
17	561	39.65334520683	57
17	561	39.65334520683	58
17	585	40.539249752273	59
17	585	40.539249752273	60
17	585	40.539249752273	61
17	585	40.539249752273	62
17	610	42.539249752273	63
17	610	42.539249752273	64
17	610	42.539249752273	65
17	610	42.539249752273	66
17	628	44.039249752273	67
17	628	44.039249752273	68
17	628	44.039249752273	69
17	628	44.039249752273	70
17	633	44.195026500779	71
17	633	44.195026500779	72
17	633	44.195026500779	73
17	633	44.195026500779	74
17	633	44.195026500779	75
17	652	44.539249752273	76
17	652	44.539249752273	77
17	652	44.539249752273	78
17	652	44.539249752273	79
17	674	46.539249752273	80
17	674	46.539249752273	81
17	674	46.539249752273	82
17	674	46.539249752273	83
17	1005	73.358087139852	84
17	1014	73.858087139852	85
17	1049	75.358087139852	86
17	1075	77.358087139852	87
17	1088	78.358087139852	88
17	1121	79.358087139852	89
17	1139	81.358087139852	90
17	1152	82.858087139852	91
17	1181	83.358087139852	92
17	1203	85.358087139852	93
17	1226	87.358087139852	94
17	1227	87.358087139852	95
17	1270	89.358087139852	96
17	1289	91.358087139852	97
17	1298	91.858087139852	98
17	1337	93.358087139852	99
17	1356	95.358087139852	100
17	1370	96.358087139852	101
17	1404	97.358087139852	102
17	1423	99.358087139852	103
18	15	2.327672727584	1
18	501	35.15334520683	2
18	501	35.15334520683	3
18	501	35.15334520683	4
18	501	35.15334520683	5
18	561	39.65334520683	6
18	561	39.65334520683	7
18	561	39.65334520683	8
18	561	39.65334520683	9
18	633	44.195026500779	10
18	633	44.195026500779	11
18	633	44.195026500779	12
18	633	44.195026500779	13
18	633	44.195026500779	14
19	16	2.349597934334	1
19	17	2.398184449391	2
19	18	2.40861461305	3
19	19	2.420652938188	4
19	24	2.482906194043	5
19	25	2.5314927091	6
19	26	2.541922872759	7
19	27	2.553961197897	8
19	43	4.482906194043	9
19	44	4.5314927091	10
19	45	4.553961197897	11
19	61	6.482906194043	12
19	62	6.5314927091	13
19	63	6.553961197897	14
19	85	8.179466085301	15
19	86	8.183002857187	16
19	101	8.482906194043	17
19	104	8.5314927091	18
19	105	8.541922872759	19
19	106	8.553961197897	20
19	107	8.603500017524	21
19	109	8.708784010056	22
19	110	8.785029902686	23
19	126	10.482906194043	24
19	127	10.5314927091	25
19	128	10.541922872759	26
19	129	10.553961197897	27
19	140	11.482906194043	28
19	141	11.5314927091	29
19	142	11.553961197897	30
19	156	11.91753176128	31
19	158	11.950336751718	32
19	160	11.976398830612	33
19	166	12.09760839869	34
19	167	12.140430954603	35
19	173	12.482906194043	36
19	174	12.5314927091	37
19	175	12.553961197897	38
19	191	14.482906194043	39
19	192	14.5314927091	40
19	193	14.541922872759	41
19	194	14.553961197897	42
19	205	15.982906194043	43
19	211	16.0314927091	44
19	212	16.041922872759	45
19	213	16.053961197897	46
19	228	16.41753176128	47
19	233	16.450336751718	48
19	236	16.476398830612	49
19	237	16.482906194043	50
19	238	16.5314927091	51
19	239	16.541922872759	52
19	240	16.553961197897	53
19	241	16.59760839869	54
19	242	16.640430954603	55
19	258	18.482906194043	56
19	259	18.5314927091	57
19	260	18.541922872759	58
19	261	18.553961197897	59
19	282	20.482906194043	60
19	283	20.482906194043	61
19	284	20.5314927091	62
19	285	20.5314927091	63
19	286	20.541922872759	64
19	287	20.541922872759	65
19	288	20.553961197897	66
19	289	20.553961197897	67
19	303	20.91753176128	68
19	305	20.950336751718	69
19	307	20.976398830612	70
19	313	21.09760839869	71
19	314	21.140430954603	72
19	325	22.482906194043	73
19	326	22.5314927091	74
19	327	22.553961197897	75
19	343	24.482906194043	76
19	344	24.5314927091	77
19	345	24.553961197897	78
19	351	24.982906194043	79
19	357	25.0314927091	80
19	358	25.053961197897	81
19	372	25.41753176128	82
19	374	25.450336751718	83
19	376	25.476398830612	84
19	377	25.59760839869	85
19	378	25.640430954603	86
19	389	26.482906194043	87
19	390	26.5314927091	88
19	391	26.553961197897	89
19	415	30.450566541839	90
19	421	30.632229962877	91
19	438	32.632229962877	92
19	476	33.979580753733	93
19	486	34.632229962877	94
19	499	35.132229962877	95
19	528	36.632229962877	96
19	546	38.632229962877	97
19	559	39.632229962877	98
19	588	40.632229962877	99
19	613	42.632229962877	100
19	630	44.132229962877	101
19	656	44.632229962877	102
19	676	46.632229962877	103
19	701	49.040844575927	104
19	717	51.29529060195	105
19	718	51.305720765609	106
19	723	51.428598861659	107
19	724	51.439029025318	108
19	754	53.326866722003	109
19	759	53.428598861659	110
19	760	53.439029025318	111
19	776	55.428598861659	112
19	782	55.928598861659	113
19	798	57.428598861659	114
19	814	59.428598861659	115
19	833	60.581265662726	116
19	846	61.216443833908	117
19	854	61.428598861659	118
19	857	61.755190213281	119
19	873	63.428598861659	120
19	884	64.928598861659	121
19	885	64.939029025318	122
19	905	65.38393514683	123
19	906	65.428598861659	124
19	907	65.439029025318	125
19	908	65.505144714908	126
19	909	65.547967270821	127
19	925	67.428598861659	128
19	926	67.439029025318	129
19	937	68.555203583832	130
19	953	69.428598861659	131
19	954	69.428598861659	132
19	955	69.439029025318	133
19	956	69.439029025318	134
19	968	69.857873067936	135
19	970	69.88393514683	136
19	976	70.005144714908	137
19	977	70.047967270821	138
19	988	71.380012346602	139
19	989	71.428598861659	140
19	990	71.439029025318	141
19	1006	73.380012346602	142
19	1007	73.428598861659	143
19	1008	73.439029025318	144
19	1009	73.451067350456	145
19	1015	73.880012346602	146
19	1016	73.928598861659	147
19	1017	73.939029025318	148
19	1018	73.951067350456	149
19	1035	74.347442904277	150
19	1037	74.373504983171	151
19	1038	74.494714551249	152
19	1039	74.537537107162	153
19	1050	75.380012346602	154
19	1051	75.428598861659	155
19	1052	75.439029025318	156
19	1053	75.451067350456	157
19	1065	76.966713447183	158
19	1076	77.428598861659	159
19	1077	77.439029025318	160
19	1078	77.451067350456	161
19	1089	78.428598861659	162
19	1090	78.439029025318	163
19	1091	78.451067350456	164
19	1105	78.825068077498	165
19	1107	78.857873067936	166
19	1109	78.88393514683	167
19	1115	79.005144714908	168
19	1116	79.047967270821	169
19	1122	79.428598861659	170
19	1123	79.439029025318	171
19	1124	79.451067350456	172
19	1140	81.428598861659	173
19	1141	81.439029025318	174
19	1142	81.451067350456	175
19	1153	82.928598861659	176
19	1154	82.939029025318	177
19	1155	82.951067350456	178
19	1175	83.325068077498	179
19	1180	83.357873067936	180
19	1183	83.38393514683	181
19	1184	83.428598861659	182
19	1185	83.439029025318	183
19	1186	83.451067350456	184
19	1187	83.505144714908	185
19	1188	83.547967270821	186
19	1204	85.380012346602	187
19	1205	85.428598861659	188
19	1206	85.439029025318	189
19	1207	85.451067350456	190
19	1228	87.380012346602	191
19	1229	87.380012346602	192
19	1230	87.428598861659	193
19	1231	87.428598861659	194
19	1232	87.439029025318	195
19	1233	87.439029025318	196
19	1234	87.451067350456	197
19	1235	87.451067350456	198
19	1249	87.814637913839	199
19	1251	87.847442904277	200
19	1253	87.873504983171	201
19	1254	87.994714551249	202
19	1260	88.037537107162	203
19	1271	89.380012346602	204
19	1272	89.428598861659	205
19	1273	89.439029025318	206
19	1274	89.451067350456	207
19	1290	91.380012346602	208
19	1291	91.428598861659	209
19	1292	91.439029025318	210
19	1293	91.451067350456	211
19	1299	91.880012346602	212
19	1300	91.928598861659	213
19	1301	91.939029025318	214
19	1302	91.951067350456	215
19	1321	92.314637913839	216
19	1323	92.347442904277	217
19	1325	92.373504983171	218
19	1326	92.494714551249	219
19	1327	92.537537107162	220
19	1338	93.380012346602	221
19	1339	93.428598861659	222
19	1340	93.439029025318	223
19	1341	93.451067350456	224
19	1357	95.380012346602	225
19	1358	95.428598861659	226
19	1359	95.439029025318	227
19	1360	95.451067350456	228
19	1371	96.380012346602	229
19	1372	96.428598861659	230
19	1373	96.439029025318	231
19	1374	96.451067350456	232
19	1388	96.814637913839	233
19	1390	96.847442904277	234
19	1392	96.873504983171	235
19	1393	96.994714551249	236
19	1399	97.037537107162	237
19	1405	97.380012346602	238
19	1406	97.428598861659	239
19	1407	97.439029025318	240
19	1408	97.451067350456	241
19	1424	99.380012346602	242
19	1425	99.428598861659	243
19	1426	99.439029025318	244
19	1427	99.451067350456	245
20	17	2.398184449391	1
20	17	2.398184449391	2
20	17	2.398184449391	3
20	17	2.398184449391	4
20	38	4.398184449391	5
20	38	4.398184449391	6
20	38	4.398184449391	7
20	38	4.398184449391	8
20	56	6.398184449391	9
20	56	6.398184449391	10
20	56	6.398184449391	11
20	56	6.398184449391	12
20	94	8.398184449391	13
20	94	8.398184449391	14
20	94	8.398184449391	15
20	94	8.398184449391	16
20	121	10.398184449391	17
20	121	10.398184449391	18
20	121	10.398184449391	19
20	121	10.398184449391	20
20	135	11.398184449391	21
20	135	11.398184449391	22
20	135	11.398184449391	23
20	135	11.398184449391	24
20	168	12.398184449391	25
20	168	12.398184449391	26
20	168	12.398184449391	27
20	168	12.398184449391	28
20	186	14.398184449391	29
20	186	14.398184449391	30
20	186	14.398184449391	31
20	186	14.398184449391	32
20	200	15.898184449391	33
20	200	15.898184449391	34
20	200	15.898184449391	35
20	200	15.898184449391	36
20	227	16.398184449391	37
20	227	16.398184449391	38
20	227	16.398184449391	39
20	227	16.398184449391	40
20	253	18.398184449391	41
20	253	18.398184449391	42
20	253	18.398184449391	43
20	253	18.398184449391	44
20	272	20.398184449391	45
20	272	20.398184449391	46
20	272	20.398184449391	47
20	272	20.398184449391	48
20	273	20.398184449391	49
20	273	20.398184449391	50
20	273	20.398184449391	51
20	273	20.398184449391	52
20	320	22.398184449391	53
20	320	22.398184449391	54
20	320	22.398184449391	55
20	320	22.398184449391	56
20	338	24.398184449391	57
20	338	24.398184449391	58
20	338	24.398184449391	59
20	338	24.398184449391	60
20	346	24.898184449391	61
20	346	24.898184449391	62
20	346	24.898184449391	63
20	346	24.898184449391	64
20	384	26.398184449391	65
20	384	26.398184449391	66
20	384	26.398184449391	67
20	384	26.398184449391	68
20	717	51.29529060195	69
20	717	51.29529060195	70
20	717	51.29529060195	71
20	717	51.29529060195	72
20	753	53.29529060195	73
20	753	53.29529060195	74
20	753	53.29529060195	75
20	753	53.29529060195	76
20	771	55.29529060195	77
20	771	55.29529060195	78
20	771	55.29529060195	79
20	771	55.29529060195	80
20	777	55.79529060195	81
20	777	55.79529060195	82
20	777	55.79529060195	83
20	777	55.79529060195	84
20	793	57.29529060195	85
20	793	57.29529060195	86
20	793	57.29529060195	87
20	793	57.29529060195	88
20	809	59.29529060195	89
20	809	59.29529060195	90
20	809	59.29529060195	91
20	809	59.29529060195	92
20	820	60.29529060195	93
20	820	60.29529060195	94
20	820	60.29529060195	95
20	849	61.29529060195	96
20	849	61.29529060195	97
20	849	61.29529060195	98
20	849	61.29529060195	99
20	868	63.29529060195	100
20	868	63.29529060195	101
20	868	63.29529060195	102
20	868	63.29529060195	103
20	879	64.79529060195	104
20	879	64.79529060195	105
20	879	64.79529060195	106
20	879	64.79529060195	107
20	898	65.29529060195	108
20	898	65.29529060195	109
20	898	65.29529060195	110
20	898	65.29529060195	111
20	920	67.29529060195	112
20	920	67.29529060195	113
20	920	67.29529060195	114
20	920	67.29529060195	115
20	943	69.29529060195	116
20	943	69.29529060195	117
20	943	69.29529060195	118
20	943	69.29529060195	119
20	944	69.29529060195	120
20	944	69.29529060195	121
20	944	69.29529060195	122
20	944	69.29529060195	123
20	983	71.29529060195	124
20	983	71.29529060195	125
20	983	71.29529060195	126
20	983	71.29529060195	127
20	1001	73.29529060195	128
20	1001	73.29529060195	129
20	1001	73.29529060195	130
20	1001	73.29529060195	131
20	1010	73.79529060195	132
20	1010	73.79529060195	133
20	1010	73.79529060195	134
20	1010	73.79529060195	135
20	1045	75.29529060195	136
20	1045	75.29529060195	137
20	1045	75.29529060195	138
20	1045	75.29529060195	139
20	1071	77.29529060195	140
20	1071	77.29529060195	141
20	1071	77.29529060195	142
20	1071	77.29529060195	143
20	1084	78.29529060195	144
20	1084	78.29529060195	145
20	1084	78.29529060195	146
20	1084	78.29529060195	147
20	1117	79.29529060195	148
20	1117	79.29529060195	149
20	1117	79.29529060195	150
20	1117	79.29529060195	151
20	1135	81.29529060195	152
20	1135	81.29529060195	153
20	1135	81.29529060195	154
20	1135	81.29529060195	155
20	1148	82.79529060195	156
20	1148	82.79529060195	157
20	1148	82.79529060195	158
20	1148	82.79529060195	159
20	1174	83.29529060195	160
20	1174	83.29529060195	161
20	1174	83.29529060195	162
20	1174	83.29529060195	163
20	1199	85.29529060195	164
20	1199	85.29529060195	165
20	1199	85.29529060195	166
20	1199	85.29529060195	167
20	1218	87.29529060195	168
20	1218	87.29529060195	169
20	1218	87.29529060195	170
20	1218	87.29529060195	171
20	1219	87.29529060195	172
20	1219	87.29529060195	173
20	1219	87.29529060195	174
20	1219	87.29529060195	175
20	1266	89.29529060195	176
20	1266	89.29529060195	177
20	1266	89.29529060195	178
20	1266	89.29529060195	179
20	1285	91.29529060195	180
20	1285	91.29529060195	181
20	1285	91.29529060195	182
20	1285	91.29529060195	183
20	1294	91.79529060195	184
20	1294	91.79529060195	185
20	1294	91.79529060195	186
20	1294	91.79529060195	187
20	1333	93.29529060195	188
20	1333	93.29529060195	189
20	1333	93.29529060195	190
20	1333	93.29529060195	191
20	1352	95.29529060195	192
20	1352	95.29529060195	193
20	1352	95.29529060195	194
20	1352	95.29529060195	195
20	1366	96.29529060195	196
20	1366	96.29529060195	197
20	1366	96.29529060195	198
20	1366	96.29529060195	199
20	1400	97.29529060195	200
20	1400	97.29529060195	201
20	1400	97.29529060195	202
20	1400	97.29529060195	203
20	1419	99.29529060195	204
20	1419	99.29529060195	205
20	1419	99.29529060195	206
20	1419	99.29529060195	207
21	20	2.43754450639	1
21	39	4.43754450639	2
21	57	6.43754450639	3
21	97	8.43754450639	4
21	122	10.43754450639	5
21	136	11.43754450639	6
21	169	12.43754450639	7
21	187	14.43754450639	8
21	201	15.93754450639	9
21	230	16.43754450639	10
21	254	18.43754450639	11
21	274	20.43754450639	12
21	275	20.43754450639	13
21	321	22.43754450639	14
21	339	24.43754450639	15
21	347	24.93754450639	16
21	385	26.43754450639	17
21	423	30.704995366269	18
21	440	32.704995366269	19
21	489	34.704995366269	20
21	506	35.204995366269	21
21	531	36.704995366269	22
21	549	38.704995366269	23
21	566	39.704995366269	24
21	591	40.704995366269	25
21	616	42.704995366269	26
21	634	44.204995366269	27
21	661	44.704995366269	28
21	719	51.334650658949	29
21	755	53.334650658949	30
21	772	55.334650658949	31
21	778	55.834650658949	32
21	794	57.334650658949	33
21	810	59.334650658949	34
21	850	61.334650658949	35
21	869	63.334650658949	36
21	880	64.834650658949	37
21	900	65.334650658949	38
21	921	67.334650658949	39
21	945	69.334650658949	40
21	946	69.334650658949	41
21	984	71.334650658949	42
21	1002	73.334650658949	43
21	1011	73.834650658949	44
21	1046	75.334650658949	45
21	1072	77.334650658949	46
21	1085	78.334650658949	47
21	1118	79.334650658949	48
21	1136	81.334650658949	49
21	1149	82.834650658949	50
21	1177	83.334650658949	51
21	1200	85.334650658949	52
21	1220	87.334650658949	53
21	1221	87.334650658949	54
21	1267	89.334650658949	55
21	1286	91.334650658949	56
21	1295	91.834650658949	57
21	1334	93.334650658949	58
21	1353	95.334650658949	59
21	1367	96.334650658949	60
21	1401	97.334650658949	61
21	1420	99.334650658949	62
22	21	2.437978174619	1
22	40	4.437978174619	2
22	58	6.437978174619	3
22	98	8.437978174619	4
22	123	10.437978174619	5
22	137	11.437978174619	6
22	170	12.437978174619	7
22	188	14.437978174619	8
22	202	15.937978174619	9
22	231	16.437978174619	10
22	255	18.437978174619	11
22	276	20.437978174619	12
22	277	20.437978174619	13
22	322	22.437978174619	14
22	340	24.437978174619	15
22	348	24.937978174619	16
22	386	26.437978174619	17
22	419	30.588100073593	18
22	436	32.588100073593	19
22	484	34.588100073593	20
22	497	35.088100073593	21
22	526	36.588100073593	22
22	544	38.588100073593	23
22	557	39.588100073593	24
22	586	40.588100073593	25
22	611	42.588100073593	26
22	985	71.335084327178	27
22	1003	73.335084327178	28
22	1012	73.835084327178	29
22	1047	75.335084327178	30
22	1201	85.335084327178	31
22	1222	87.335084327178	32
22	1223	87.335084327178	33
22	1268	89.335084327178	34
22	1287	91.335084327178	35
22	1296	91.835084327178	36
22	1335	93.335084327178	37
22	1354	95.335084327178	38
22	1368	96.335084327178	39
22	1402	97.335084327178	40
22	1421	99.335084327178	41
23	22	2.444345605965	1
23	99	8.444345605965	2
23	124	10.444345605965	3
23	189	14.444345605965	4
23	203	15.944345605965	5
23	232	16.444345605965	6
23	256	18.444345605965	7
23	278	20.444345605965	8
23	279	20.444345605965	9
23	487	34.650425973375	10
23	500	35.150425973375	11
23	529	36.650425973375	12
23	547	38.650425973375	13
23	560	39.650425973375	14
23	589	40.650425973375	15
23	614	42.650425973375	16
23	631	44.150425973375	17
23	657	44.650425973375	18
23	677	46.650425973375	19
23	721	51.341451758524	20
23	757	53.341451758524	21
23	882	64.841451758524	22
23	902	65.341451758524	23
23	923	67.341451758524	24
23	949	69.341451758524	25
23	950	69.341451758524	26
23	986	71.341451758524	27
23	1004	73.341451758524	28
23	1013	73.841451758524	29
23	1048	75.341451758524	30
23	1074	77.341451758524	31
23	1087	78.341451758524	32
23	1120	79.341451758524	33
23	1138	81.341451758524	34
23	1151	82.841451758524	35
23	1179	83.341451758524	36
23	1202	85.341451758524	37
23	1224	87.341451758524	38
23	1225	87.341451758524	39
23	1269	89.341451758524	40
23	1288	91.341451758524	41
23	1297	91.841451758524	42
23	1336	93.341451758524	43
23	1355	95.341451758524	44
23	1369	96.341451758524	45
23	1403	97.341451758524	46
23	1422	99.341451758524	47
24	23	2.460980987293	1
24	42	4.460980987293	2
24	60	6.460980987293	3
24	100	8.460980987293	4
24	125	10.460980987293	5
24	139	11.460980987293	6
24	172	12.460980987293	7
24	190	14.460980987293	8
24	204	15.960980987293	9
24	234	16.460980987293	10
24	257	18.460980987293	11
24	280	20.460980987293	12
24	281	20.460980987293	13
24	324	22.460980987293	14
24	342	24.460980987293	15
24	350	24.960980987293	16
24	388	26.460980987293	17
24	1005	73.358087139852	18
24	1014	73.858087139852	19
24	1049	75.358087139852	20
24	1075	77.358087139852	21
24	1088	78.358087139852	22
24	1121	79.358087139852	23
24	1139	81.358087139852	24
24	1152	82.858087139852	25
24	1181	83.358087139852	26
24	1203	85.358087139852	27
24	1226	87.358087139852	28
24	1227	87.358087139852	29
24	1270	89.358087139852	30
24	1289	91.358087139852	31
24	1298	91.858087139852	32
24	1337	93.358087139852	33
24	1356	95.358087139852	34
24	1370	96.358087139852	35
24	1404	97.358087139852	36
24	1423	99.358087139852	37
25	141	11.5314927091	1
25	141	11.5314927091	2
25	141	11.5314927091	3
25	141	11.5314927091	4
25	141	11.5314927091	5
25	211	16.0314927091	6
25	211	16.0314927091	7
25	211	16.0314927091	8
25	211	16.0314927091	9
25	211	16.0314927091	10
25	284	20.5314927091	11
25	284	20.5314927091	12
25	284	20.5314927091	13
25	284	20.5314927091	14
25	284	20.5314927091	15
25	357	25.0314927091	16
25	357	25.0314927091	17
25	357	25.0314927091	18
25	357	25.0314927091	19
25	357	25.0314927091	20
25	885	64.939029025318	21
25	885	64.939029025318	22
25	885	64.939029025318	23
25	955	69.439029025318	24
25	955	69.439029025318	25
25	955	69.439029025318	26
25	955	69.439029025318	27
25	1016	73.928598861659	28
25	1016	73.928598861659	29
25	1016	73.928598861659	30
25	1016	73.928598861659	31
25	1090	78.439029025318	32
25	1090	78.439029025318	33
25	1090	78.439029025318	34
25	1090	78.439029025318	35
25	1090	78.439029025318	36
25	1154	82.939029025318	37
25	1154	82.939029025318	38
25	1154	82.939029025318	39
25	1154	82.939029025318	40
25	1154	82.939029025318	41
25	1230	87.428598861659	42
25	1230	87.428598861659	43
25	1230	87.428598861659	44
25	1230	87.428598861659	45
25	1230	87.428598861659	46
25	1300	91.928598861659	47
25	1300	91.928598861659	48
25	1300	91.928598861659	49
25	1300	91.928598861659	50
25	1300	91.928598861659	51
25	1372	96.428598861659	52
25	1372	96.428598861659	53
25	1372	96.428598861659	54
25	1372	96.428598861659	55
25	1372	96.428598861659	56
26	148	11.722664811799	3.722664811799
26	219	16.222664811799	4.5
26	295	20.722664811799	4.5
26	364	25.222664811799	4.5
26	641	44.327531643913	19.104866832114
26	894	65.130201128017	20.802669484104
26	961	69.630201128017	4.5
26	1028	74.119770964358	4.489569836341
26	1097	78.630201128017	4.510430163659
26	1166	83.130201128017	4.5
26	1241	87.619770964358	4.489569836341
26	1313	92.119770964358	4.5
26	1380	96.619770964358	4.5
27	149	11.738065675979	3.738065675979
27	220	16.238065675979	4.5
27	296	20.738065675979	4.5
27	365	25.238065675979	4.5
27	508	35.301251214144	10.063185538165
27	568	39.801251214144	4.5
27	642	44.342932508093	4.541681293949
27	1098	78.645601992197	34.302669484104
27	1167	83.145601992197	4.5
27	1242	87.635171828538	4.489569836341
27	1314	92.135171828538	4.5
27	1381	96.635171828538	4.5
28	151	11.767333894531	3.767333894531
28	222	16.267333894531	4.5
28	298	20.767333894531	4.5
28	367	25.267333894531	4.5
28	510	35.330519432696	10.063185538165
28	570	39.830519432696	4.5
28	644	44.372200726645	4.541681293949
28	962	69.674870210749	25.302669484104
28	1029	74.16444004709	4.489569836341
28	1100	78.674870210749	4.510430163659
28	1169	83.174870210749	4.5
28	1244	87.66444004709	4.489569836341
28	1316	92.16444004709	4.5
28	1383	96.66444004709	4.5
29	154	11.817147879912	3.817147879912
29	225	16.317147879912	4.5
29	301	20.817147879912	4.5
29	370	25.317147879912	4.5
29	512	35.380333418077	10.063185538165
29	572	39.880333418077	4.5
29	647	44.422014712026	4.541681293949
29	896	65.22468419613	20.802669484104
29	965	69.72468419613	4.5
29	1032	74.214254032471	4.489569836341
29	1103	78.72468419613	4.510430163659
29	1172	83.22468419613	4.5
29	1247	87.714254032471	4.489569836341
29	1319	92.214254032471	4.5
29	1386	96.714254032471	4.5
30	155	11.87261176555	3.87261176555
30	226	16.37261176555	4.5
30	302	20.87261176555	4.5
30	371	25.37261176555	4.5
30	513	35.435797303715	10.063185538165
30	573	39.935797303715	4.5
30	648	44.477478597664	4.541681293949
30	897	65.280148081768	20.802669484104
30	966	69.780148081768	4.5
30	1033	74.269717918109	4.489569836341
30	1104	78.780148081768	4.510430163659
30	1173	83.280148081768	4.5
30	1248	87.769717918109	4.489569836341
30	1320	92.269717918109	4.5
30	1387	96.769717918109	4.5
31	412	30.357586331235	1
31	412	30.357586331235	2
31	412	30.357586331235	3
31	412	30.357586331235	4
32	418	30.539249752273	1
32	418	30.539249752273	2
32	418	30.539249752273	3
32	418	30.539249752273	4
32	435	32.539249752273	5
32	435	32.539249752273	6
32	435	32.539249752273	7
32	435	32.539249752273	8
32	483	34.539249752273	9
32	483	34.539249752273	10
32	483	34.539249752273	11
32	483	34.539249752273	12
32	496	35.039249752273	13
32	496	35.039249752273	14
32	496	35.039249752273	15
32	496	35.039249752273	16
32	525	36.539249752273	17
32	525	36.539249752273	18
32	525	36.539249752273	19
32	525	36.539249752273	20
32	543	38.539249752273	21
32	543	38.539249752273	22
32	543	38.539249752273	23
32	543	38.539249752273	24
32	556	39.539249752273	25
32	556	39.539249752273	26
32	556	39.539249752273	27
32	556	39.539249752273	28
32	585	40.539249752273	29
32	585	40.539249752273	30
32	585	40.539249752273	31
32	585	40.539249752273	32
32	610	42.539249752273	33
32	610	42.539249752273	34
32	610	42.539249752273	35
32	610	42.539249752273	36
32	628	44.039249752273	37
32	628	44.039249752273	38
32	628	44.039249752273	39
32	628	44.039249752273	40
32	652	44.539249752273	41
32	652	44.539249752273	42
32	652	44.539249752273	43
32	652	44.539249752273	44
32	674	46.539249752273	45
32	674	46.539249752273	46
32	674	46.539249752273	47
32	674	46.539249752273	48
33	630	44.132229962877	1
33	656	44.632229962877	2
33	676	46.632229962877	3

