file 59494 1647726222                                           
version 2
run StaticNetwork-1-20220319-22:42:45-12848
attr configname StaticNetwork
attr datetime 20220319-22:42:45
attr experiment StaticNetwork
attr inifile omnetpp.ini
attr iterationvars "$0=1, $1=7, $2=0"
attr iterationvarsf 1,7,0-
attr measurement "$0=1, $1=7, $2=0"
attr network RAFT_Network
attr processid 12848
attr repetition 1
attr replication #1
attr resultdir results
attr runnumber 1
attr seedset 1
param **.servers_number 5
param **.clients_number 5
param **.client[*].requestMsgTimeout "normal(7.0s, 1.5s)"
param **.cloud.propDelay "uniform(0.1s, 0.3s)"
param **.server[*].electionTimeout "normal(5.0s, 1s)"
param **.server[*].heartbeatTimeout 2s
param **.server[*].appendEntriesTimeout 4.5s
param **.server[*].checkFailureTimeout 1s
param **.server[*].checkRecoveryTimeout 1s
param **.failureProbability 1
param **.recoveryProbability 7
param **.messageLossProbability 0

vector 0 RAFT_Network.server[0] serverState ETV
vector 1 RAFT_Network.server[1] serverState ETV
vector 2 RAFT_Network.server[2] serverState ETV
vector 3 RAFT_Network.server[3] serverState ETV
vector 4 RAFT_Network.server[4] serverState ETV
0	1162 9 0 0 0 0 1 0 0 0 0
1	1171 9 0 0 0 0 1 0 0 0 0
2	1180 9 0 0 0 0 1 0 0 0 0
3	1189 9 0 0 0 0 1 0 0 0 0
4	1198 9 0 0 0 0 1 0 0 0 0
vector 5 RAFT_Network.server[2] totMsgSent ETV
vector 6 RAFT_Network.server[2] totRequestVoteMsgSent ETV
vector 7 RAFT_Network.server[0] totMsgReceived ETV
vector 8 RAFT_Network.server[0] totMsgSent ETV
vector 9 RAFT_Network.server[0] totReplyToClientRequestMsgSent ETV
vector 10 RAFT_Network.server[3] totMsgReceived ETV
vector 11 RAFT_Network.server[3] totMsgSent ETV
vector 12 RAFT_Network.server[3] totReplyToClientRequestMsgSent ETV
vector 13 RAFT_Network.server[4] totMsgSent ETV
vector 14 RAFT_Network.server[4] totRequestVoteMsgSent ETV
0	1762 46 27 27 5.021919424931 5.021919424931 2 0 0 0 0
2	1808 46 26 26 5.010483204601 5.010483204601 2 0 1 1 1
3	1854 46 28 28 5.049181574677 5.049181574677 2 0 0 0 0
4	1900 46 29 29 5.049181574677 5.049181574677 2 0 1 1 1
5	1946 92 26 26 5.010483204601 5.010483204601 4 1 4 10 30
6	2038 92 26 26 5.010483204601 5.010483204601 4 1 4 10 30
7	2130 46 27 30 5.021919424931 5.050570056058 2 1 2 3 5
8	2176 46 27 30 5.021919424931 5.050570056058 2 1 2 3 5
9	2222 46 27 30 5.021919424931 5.050570056058 2 1 2 3 5
10	2268 24 28 28 5.049181574677 5.049181574677 1 1 1 1 1
11	2292 24 28 28 5.049181574677 5.049181574677 1 1 1 1 1
12	2316 24 28 28 5.049181574677 5.049181574677 1 1 1 1 1
13	2340 96 29 29 5.049181574677 5.049181574677 4 1 4 10 30
14	2436 96 29 29 5.049181574677 5.049181574677 4 1 4 10 30
vector 15 RAFT_Network.server[2] totMsgReceived ETV
vector 16 RAFT_Network.server[2] totAppendEntriesMsgSent ETV
2	2647 46 32 32 5.059093909465 5.059093909465 2 1 2 3 5
5	2693 92 32 32 5.059093909465 5.059093909465 4 5 8 26 174
15	2785 48 31 32 5.056745220561 5.059093909465 2 1 2 3 5
16	2833 96 32 32 5.059093909465 5.059093909465 4 1 4 10 30
vector 17 RAFT_Network.server[2] totReplyToClientRequestMsgSent ETV
5	2998 23 33 33 5.060220235521 5.060220235521 1 9 9 9 81
15	3021 24 33 33 5.060220235521 5.060220235521 1 3 3 3 9
17	3045 24 33 33 5.060220235521 5.060220235521 1 1 1 1 1
vector 18 RAFT_Network.server[4] totMsgReceived ETV
18	3122 24 34 34 5.063610848555 5.063610848555 1 1 1 1 1
vector 19 RAFT_Network.server[1] totMsgReceived ETV
vector 20 RAFT_Network.server[1] totMsgSent ETV
vector 21 RAFT_Network.server[1] totReplyToClientRequestMsgSent ETV
vector 22 RAFT_Network.server[0] totReplyToAppendEntriesMsgSent ETV
vector 23 RAFT_Network.server[3] totReplyToAppendEntriesMsgSent ETV
1	3455 46 35 35 5.065987220529 5.065987220529 2 0 0 0 0
7	3501 23 36 36 5.070530129795 5.070530129795 1 3 3 3 9
8	3524 23 36 36 5.070530129795 5.070530129795 1 3 3 3 9
10	3547 24 37 37 5.087261171032 5.087261171032 1 2 2 2 4
11	3571 24 37 37 5.087261171032 5.087261171032 1 2 2 2 4
15	3595 24 39 39 5.094824816916 5.094824816916 1 4 4 4 16
19	3619 48 35 38 5.065987220529 5.090081940246 2 1 2 3 5
20	3667 48 35 38 5.065987220529 5.090081940246 2 1 2 3 5
21	3715 48 35 38 5.065987220529 5.090081940246 2 1 2 3 5
22	3763 24 36 36 5.070530129795 5.070530129795 1 1 1 1 1
23	3787 24 37 37 5.087261171032 5.087261171032 1 1 1 1 1
15	3811 24 40 40 5.104210133152 5.104210133152 1 5 5 5 25
15	3835 24 41 41 5.107704614329 5.107704614329 1 6 6 6 36
vector 24 RAFT_Network.server[1] totReplyToAppendEntriesMsgSent ETV
19	3928 24 42 42 5.114597925393 5.114597925393 1 3 3 3 9
20	3952 24 42 42 5.114597925393 5.114597925393 1 3 3 3 9
24	3976 24 42 42 5.114597925393 5.114597925393 1 1 1 1 1
18	4000 24 43 43 5.120633100796 5.120633100796 1 2 2 2 4
10	4024 23 44 44 5.12983995924 5.12983995924 1 3 3 3 9
11	4047 23 44 44 5.12983995924 5.12983995924 1 3 3 3 9
12	4070 23 44 44 5.12983995924 5.12983995924 1 2 2 2 4
vector 25 RAFT_Network.server[4] totReplyToClientRequestMsgSent ETV
13	4162 24 45 45 5.150432135165 5.150432135165 1 5 5 5 25
18	4186 24 45 45 5.150432135165 5.150432135165 1 3 3 3 9
25	4210 24 45 45 5.150432135165 5.150432135165 1 1 1 1 1
vector 26 RAFT_Network.server[4] totReplyToAppendEntriesMsgSent ETV
4	4303 46 48 48 5.199042840029 5.199042840029 2 0 1 1 1
13	4349 24 48 48 5.199042840029 5.199042840029 1 6 6 6 36
15	4373 48 46 47 5.152820838016 5.161470796009 2 7 8 15 113
18	4421 24 48 48 5.199042840029 5.199042840029 1 4 4 4 16
26	4445 24 48 48 5.199042840029 5.199042840029 1 1 1 1 1
vector 27 RAFT_Network.client[1] responseTime ETV
vector 28 RAFT_Network.client[0] responseTime ETV
vector 29 RAFT_Network.client[4] responseTime ETV
vector 30 RAFT_Network.client[2] responseTime ETV
vector 31 RAFT_Network.client[3] responseTime ETV
vector 32 RAFT_Network.server[4] totAppendEntriesMsgSent ETV
vector 33 RAFT_Network.server[2] totReplyToAppendEntriesMsgSent ETV
0	4855 116 541 1589 36 100 7 -1 0 -2 2
1	4971 170 332 1589 23 100 11 -1 0 -4 4
2	5141 120 1068 1589 69 100 7 -1 2 0 6
3	5261 118 852 1589 55 100 7 -1 0 -2 2
4	5379 118 1086 1589 72.248224414706 100 5 0 2 6 10
5	5497 7104 78 1554 7.059093909465 99.330714601669 266 10 275 37905 6969865
7	12601 1831 63 1553 6.595357374915 99.321064422206 70 4 73 2695 132335
8	14432 1522 79 1553 7.070530129795 99.321064422206 58 4 61 1885 77517
9	15954 26 1087 1087 72.249612896087 72.249612896087 1 3 3 3 9
10	15980 1796 80 1558 7.087261171032 99.400334325388 66 4 69 2409 111881
11	17776 1579 80 1558 7.087261171032 99.400334325388 58 4 61 1885 77517
12	19355 27 1093 1093 72.328882799269 72.328882799269 1 3 3 3 9
13	19382 4788 87 1557 7.199042840029 99.391127466944 170 7 176 15555 1832685
14	24170 108 1086 1086 72.248224414706 72.248224414706 4 5 8 26 174
15	24278 7168 51 1554 5.210081500873 99.330714601669 259 9 267 35742 6380206
16	31446 4936 78 1037 7.059093909465 68.059093909465 180 5 184 17010 2093430
17	36382 1882 129 1041 9.607704614329 68.107704614329 70 2 71 2555 121835
18	38264 4591 49 1583 5.200169166085 99.996690733753 164 5 168 14186 1594654
19	42855 1822 83 1556 7.114597925393 99.360576306394 67 4 70 2479 116781
20	44677 1605 83 1556 7.114597925393 99.360576306394 59 4 62 1947 81361
21	46282 27 1090 1090 72.289124780275 72.289124780275 1 3 3 3 9
22	46309 1550 79 1553 7.070530129795 99.321064422206 57 2 58 1710 66728
23	47859 1549 80 1558 7.087261171032 99.400334325388 57 2 58 1710 66728
24	49408 1575 83 1556 7.114597925393 99.360576306394 58 2 59 1769 70209
25	50983 1140 1160 1557 76.891127466944 99.391127466944 41 2 42 902 25584
26	52123 1206 87 1049 7.199042840029 68.199042840029 45 2 46 1080 33510
27	53329 626 139 1568 9.852470587225 99.689461058174 19 3.586411249182 13.336990470949 93.423401720131 535.00845433637
28	53955 626 140 1569 9.854922669697 99.691913140646 19 3.380644476037 13.336990470949 93.217634946986 533.57486576147
29	54581 626 141 1570 9.855654960875 99.692645431824 19 1.793999534133 13.336990470949 91.630990005082 525.36454301658
30	55207 816 142 1572 9.859784957715 99.696775428664 26 0 8.836990470949 93.364135695543 455.05394788494
31	56023 799 147 1579 9.955723842499 99.792714313448 25 0 9.097560212654 91.406575803479 447.47276271983
32	56822 2231 1091 1552 72.319675940825 99.319675940825 80 1 80 3240 173880
33	59053 439 1204 1554 78.330714601669 99.330714601669 16 1 16 136 1496

