version 2
run StaticNetwork-1-20220401-09:13:52-20844
attr configname StaticNetwork
attr datetime 20220401-09:13:52
attr experiment StaticNetwork
attr inifile omnetpp.ini
attr iterationvars "$0=3, $1=5, $2=normal(7.0s, 1.5s), $3=uniform(0.1s, 0.3s), $4=normal(5.0s, 1s), $5=2s, $6=4.5s, $7=5s, $8=1s, $9=1, $10=7, $11=0"
attr iterationvarsf 3,5,normal(7.0s,_1.5s),uniform(0.1s,_0.3s),normal(5.0s,_1s),2s,4.5s,5s,1s,1,7,0-
attr measurement "$0=3, $1=5, $2=normal(7.0s, 1.5s), $3=uniform(0.1s, 0.3s), $4=normal(5.0s, 1s), $5=2s, $6=4.5s, $7=5s, $8=1s, $9=1, $10=7, $11=0"
attr network RAFT_Network
attr processid 20844
attr repetition 1
attr replication #1
attr resultdir results
attr runnumber 1
attr seedset 1
param **.servers_number 3
param **.clients_number 5
param **.client[*].requestMsgTimeout "normal(7.0s, 1.5s)"
param **.cloud.propDelay "uniform(0.1s, 0.3s)"
param **.server[*].electionTimeout "normal(5.0s, 1s)"
param **.server[*].heartbeatTimeout 2s
param **.server[*].appendEntriesTimeout 4.5s
param **.server[*].checkFailureTimeout 5s
param **.server[*].checkRecoveryTimeout 1s
param **.failureProbability 1
param **.recoveryProbability 7
param **.messageLossProbability 0

vector 0 RAFT_Network.server[0] serverState ETV
vector 1 RAFT_Network.server[1] serverState ETV
vector 2 RAFT_Network.server[2] serverState ETV
vector 3 RAFT_Network.server[2] totMsgSent ETV
vector 4 RAFT_Network.server[2] totRequestVoteMsgSent ETV
vector 5 RAFT_Network.server[0] totMsgReceived ETV
vector 6 RAFT_Network.server[0] totMsgSent ETV
vector 7 RAFT_Network.server[0] totReplyToClientRequestMsgSent ETV
vector 8 RAFT_Network.server[1] totMsgReceived ETV
vector 9 RAFT_Network.server[1] totMsgSent ETV
vector 10 RAFT_Network.server[1] totReplyToClientRequestMsgSent ETV
vector 11 RAFT_Network.server[2] totMsgReceived ETV
vector 12 RAFT_Network.server[0] electionsMeanTime ETV
vector 13 RAFT_Network.server[2] totAppendEntriesMsgSent ETV
vector 14 RAFT_Network.server[0] totReplyToAppendEntriesMsgSent ETV
vector 15 RAFT_Network.server[1] totReplyToAppendEntriesMsgSent ETV
vector 16 RAFT_Network.server[2] totReplyToClientRequestMsgSent ETV
vector 17 RAFT_Network.client[3] responseTime ETV
vector 18 RAFT_Network.client[4] responseTime ETV
vector 19 RAFT_Network.client[1] responseTime ETV
vector 20 RAFT_Network.client[2] responseTime ETV
vector 21 RAFT_Network.client[0] responseTime ETV
vector 22 RAFT_Network.server[0] totRequestVoteMsgSent ETV
vector 23 RAFT_Network.server[0] totAppendEntriesMsgSent ETV
vector 24 RAFT_Network.server[2] totReplyToAppendEntriesMsgSent ETV
vector 25 RAFT_Network.server[1] totRequestVoteMsgSent ETV
0	0	0	0
0	5	5.037650173532	0
0	5	5.037650173532	0
0	2948	345.15292372752	0
0	2948	345.15292372752	1
0	2952	345.328706516818	1
0	2952	345.328706516818	2
0	3511	410	2
0	3511	410	-1
0	3553	417	-1
0	3553	417	0
0	3558	418.536582818857	0
0	3558	418.536582818857	0
0	3821	447	0
0	3821	447	-1
0	3855	451	-1
0	3855	451	0
0	4684	550.575271427682	0
0	4684	550.575271427682	1
0	4687	550.75105421698	1
0	4687	550.75105421698	2
0	5811	681	2
0	5811	681	-1
0	6123	720	-1
0	6123	720	0
0	6127	721.958930519019	0
0	6127	721.958930519019	0
0	6219	733.997619127844	0
0	6219	733.997619127844	1
0	6225	734.173401917142	1
0	6225	734.173401917142	2
0	8869	1040	2
0	8869	1040	-1
0	8946	1050	-1
0	8946	1050	0
0	8948	1051.381278219181	0
0	8948	1051.381278219181	0
0	15449	1800	0
0	15449	1800	-1
0	15547	1813	-1
0	15547	1813	0
0	15939	1858	0
0	15939	1858	-1
0	15962	1860	-1
0	15962	1860	0
0	16395	1913.419966828006	0
0	16395	1913.419966828006	1
0	16398	1913.595749617304	1
0	16398	1913.595749617304	2
0	16422	1915	2
0	16422	1915	-1
0	16433	1918	-1
0	16433	1918	0
0	16439	1920.226664040626	0
0	16439	1920.226664040626	0
0	16465	1925.244407185277	0
0	16465	1925.244407185277	0
0	18309	2178	0
0	18309	2178	-1
0	18483	2204	-1
0	18483	2204	0
0	19459	2339.359680739265	0
0	19459	2339.359680739265	1
0	19463	2339.535463528563	1
0	19463	2339.535463528563	2
0	25207	3000	2
1	0	0	0
1	6	5.068277190131	0
1	6	5.068277190131	0
1	1183	140	0
1	1183	140	-1
1	1319	154	-1
1	1319	154	0
1	1445	169	0
1	1445	169	-1
1	1646	192	-1
1	1646	192	0
1	2951	345.290008528304	0
1	2951	345.290008528304	0
1	3004	352	0
1	3004	352	-1
1	3167	372	-1
1	3167	372	0
1	3311	387	0
1	3311	387	-1
1	3480	408	-1
1	3480	408	0
1	3520	414.490624890293	0
1	3520	414.490624890293	0
1	3984	468	0
1	3984	468	-1
1	4008	469	-1
1	4008	469	0
1	4686	550.712356228466	0
1	4686	550.712356228466	0
1	5847	685.912972590455	0
1	5847	685.912972590455	0
1	5974	704	0
1	5974	704	-1
1	5995	705	-1
1	5995	705	0
1	6224	734.134703928628	0
1	6224	734.134703928628	0
1	8886	1043.335320290617	0
1	8886	1043.335320290617	0
1	16042	1870	0
1	16042	1870	-1
1	16276	1897	-1
1	16276	1897	0
1	16397	1913.55705162879	0
1	16397	1913.55705162879	0
1	16437	1920.187966052112	0
1	16437	1920.187966052112	1
1	16466	1925.275034201876	1
1	16466	1925.275034201876	0
1	19462	2339.496765540049	0
1	19462	2339.496765540049	0
1	20560	2462	0
1	20560	2462	-1
1	20605	2468	-1
1	20605	2468	0
1	25207	3000	0
2	0	0	0
2	4	5.010483204601	0
2	4	5.010483204601	1
2	7	5.087068149764	1
2	7	5.087068149764	2
2	2930	340	2
2	2930	340	-1
2	3090	365	-1
2	3090	365	0
2	3095	365.422347700162	0
2	3095	365.422347700162	0
2	3518	414.432830904763	0
2	3518	414.432830904763	1
2	3521	414.509415849926	1
2	3521	414.509415849926	2
2	4649	545	2
2	4649	545	-1
2	4877	573	-1
2	4877	573	0
2	4879	573.344695400324	0
2	4879	573.344695400324	0
2	5613	658	0
2	5613	658	-1
2	5628	659	-1
2	5628	659	0
2	5845	685.855178604925	0
2	5845	685.855178604925	1
2	5848	685.931763550088	1
2	5848	685.931763550088	2
2	6198	729	2
2	6198	729	-1
2	6244	737	-1
2	6244	737	0
2	6246	738.267043100486	0
2	6246	738.267043100486	0
2	6869	807	0
2	6869	807	-1
2	7309	859	-1
2	7309	859	0
2	8884	1043.277526305087	0
2	8884	1043.277526305087	1
2	8887	1043.35411125025	1
2	8887	1043.35411125025	2
2	16388	1909	2
2	16388	1909	-1
2	16436	1920	-1
2	16436	1920	0
2	16438	1920.206757011745	0
2	16438	1920.206757011745	0
2	16464	1925.217240216346	0
2	16464	1925.217240216346	1
2	16467	1925.293825161509	1
2	16467	1925.293825161509	2
2	19435	2335	2
2	19435	2335	-1
2	19586	2352	-1
2	19586	2352	0
2	19588	2353.129104711907	0
2	19588	2353.129104711907	0
2	20168	2417	0
2	20168	2417	-1
2	20212	2423	-1
2	20212	2423	0
2	24332	2898	0
2	24332	2898	-1
2	24422	2909	-1
2	24422	2909	0
2	25207	3000	0
3	4	5.010483204601	1
3	4	5.010483204601	2
3	7	5.087068149764	3
3	7	5.087068149764	4
3	33	7.087068149764	5
3	33	7.087068149764	6
3	49	9.087068149764	7
3	49	9.087068149764	8
3	54	9.587068149764	9
3	54	9.587068149764	10
3	57	9.663653094927	11
3	57	9.663653094927	12
3	57	9.663653094927	13
3	57	9.663653094927	14
3	57	9.663653094927	15
3	82	11.087068149764	16
3	82	11.087068149764	17
3	87	13.087068149764	18
3	87	13.087068149764	19
3	92	14.087068149764	20
3	92	14.087068149764	21
3	95	14.163653094927	22
3	95	14.163653094927	23
3	95	14.163653094927	24
3	95	14.163653094927	25
3	95	14.163653094927	26
3	120	15.087068149764	27
3	120	15.087068149764	28
3	125	17.087068149764	29
3	125	17.087068149764	30
3	130	18.587068149764	31
3	130	18.587068149764	32
3	133	18.663653094927	33
3	133	18.663653094927	34
3	133	18.663653094927	35
3	133	18.663653094927	36
3	133	18.663653094927	37
3	151	19.087068149764	38
3	151	19.087068149764	39
3	163	21.087068149764	40
3	163	21.087068149764	41
3	168	23.087068149764	42
3	168	23.087068149764	43
3	169	23.087068149764	44
3	169	23.087068149764	45
3	174	23.163653094927	46
3	174	23.163653094927	47
3	174	23.163653094927	48
3	174	23.163653094927	49
3	174	23.163653094927	50
3	201	25.087068149764	51
3	201	25.087068149764	52
3	206	27.087068149764	53
3	206	27.087068149764	54
3	211	27.587068149764	55
3	211	27.587068149764	56
3	214	27.663653094927	57
3	214	27.663653094927	58
3	214	27.663653094927	59
3	214	27.663653094927	60
3	214	27.663653094927	61
3	236	29.087068149764	62
3	236	29.087068149764	63
3	244	31.087068149764	64
3	244	31.087068149764	65
3	249	32.087068149764	66
3	249	32.087068149764	67
3	252	32.163653094927	68
3	252	32.163653094927	69
3	252	32.163653094927	70
3	252	32.163653094927	71
3	252	32.163653094927	72
3	274	33.087068149764	73
3	274	33.087068149764	74
3	282	35.087068149764	75
3	282	35.087068149764	76
3	287	36.587068149764	77
3	287	36.587068149764	78
3	290	36.663653094927	79
3	290	36.663653094927	80
3	290	36.663653094927	81
3	290	36.663653094927	82
3	290	36.663653094927	83
3	308	37.087068149764	84
3	308	37.087068149764	85
3	317	39.087068149764	86
3	317	39.087068149764	87
3	325	41.087068149764	88
3	325	41.087068149764	89
3	326	41.087068149764	90
3	326	41.087068149764	91
3	331	41.163653094927	92
3	331	41.163653094927	93
3	331	41.163653094927	94
3	331	41.163653094927	95
3	331	41.163653094927	96
3	355	43.087068149764	97
3	355	43.087068149764	98
3	363	45.087068149764	99
3	363	45.087068149764	100
3	368	45.587068149764	101
3	368	45.587068149764	102
3	371	45.663653094927	103
3	371	45.663653094927	104
3	371	45.663653094927	105
3	371	45.663653094927	106
3	371	45.663653094927	107
3	393	47.087068149764	108
3	393	47.087068149764	109
3	398	49.087068149764	110
3	398	49.087068149764	111
3	406	50.087068149764	112
3	406	50.087068149764	113
3	409	50.163653094927	114
3	409	50.163653094927	115
3	409	50.163653094927	116
3	409	50.163653094927	117
3	409	50.163653094927	118
3	431	51.087068149764	119
3	431	51.087068149764	120
3	436	53.087068149764	121
3	436	53.087068149764	122
3	441	54.587068149764	123
3	441	54.587068149764	124
3	444	54.663653094927	125
3	444	54.663653094927	126
3	444	54.663653094927	127
3	444	54.663653094927	128
3	444	54.663653094927	129
3	465	55.087068149764	130
3	465	55.087068149764	131
3	474	57.087068149764	132
3	474	57.087068149764	133
3	479	59.087068149764	134
3	479	59.087068149764	135
3	480	59.087068149764	136
3	480	59.087068149764	137
3	485	59.163653094927	138
3	485	59.163653094927	139
3	485	59.163653094927	140
3	485	59.163653094927	141
3	485	59.163653094927	142
3	512	61.087068149764	143
3	512	61.087068149764	144
3	517	63.087068149764	145
3	517	63.087068149764	146
3	522	63.587068149764	147
3	522	63.587068149764	148
3	525	63.663653094927	149
3	525	63.663653094927	150
3	525	63.663653094927	151
3	525	63.663653094927	152
3	525	63.663653094927	153
3	550	65.087068149764	154
3	550	65.087068149764	155
3	555	67.087068149764	156
3	555	67.087068149764	157
3	560	68.087068149764	158
3	560	68.087068149764	159
3	563	68.163653094927	160
3	563	68.163653094927	161
3	563	68.163653094927	162
3	563	68.163653094927	163
3	563	68.163653094927	164
3	585	69.087068149764	165
3	585	69.087068149764	166
3	593	71.087068149764	167
3	593	71.087068149764	168
3	598	72.587068149764	169
3	598	72.587068149764	170
3	601	72.663653094927	171
3	601	72.663653094927	172
3	601	72.663653094927	173
3	601	72.663653094927	174
3	601	72.663653094927	175
3	619	73.087068149764	176
3	619	73.087068149764	177
3	631	75.087068149764	178
3	631	75.087068149764	179
3	636	77.087068149764	180
3	636	77.087068149764	181
3	637	77.087068149764	182
3	637	77.087068149764	183
3	642	77.163653094927	184
3	642	77.163653094927	185
3	642	77.163653094927	186
3	642	77.163653094927	187
3	642	77.163653094927	188
3	666	79.087068149764	189
3	666	79.087068149764	190
3	674	81.087068149764	191
3	674	81.087068149764	192
3	679	81.587068149764	193
3	679	81.587068149764	194
3	682	81.663653094927	195
3	682	81.663653094927	196
3	682	81.663653094927	197
3	682	81.663653094927	198
3	682	81.663653094927	199
3	704	83.087068149764	200
3	704	83.087068149764	201
3	712	85.087068149764	202
3	712	85.087068149764	203
3	717	86.087068149764	204
3	717	86.087068149764	205
3	720	86.163653094927	206
3	720	86.163653094927	207
3	720	86.163653094927	208
3	720	86.163653094927	209
3	720	86.163653094927	210
3	742	87.087068149764	211
3	742	87.087068149764	212
3	747	89.087068149764	213
3	747	89.087068149764	214
3	755	90.587068149764	215
3	755	90.587068149764	216
3	758	90.663653094927	217
3	758	90.663653094927	218
3	758	90.663653094927	219
3	758	90.663653094927	220
3	758	90.663653094927	221
3	776	91.087068149764	222
3	776	91.087068149764	223
3	785	93.087068149764	224
3	785	93.087068149764	225
3	793	95.087068149764	226
3	793	95.087068149764	227
3	794	95.087068149764	228
3	794	95.087068149764	229
3	799	95.163653094927	230
3	799	95.163653094927	231
3	799	95.163653094927	232
3	799	95.163653094927	233
3	799	95.163653094927	234
3	823	97.087068149764	235
3	823	97.087068149764	236
3	828	99.087068149764	237
3	828	99.087068149764	238
3	833	99.587068149764	239
3	833	99.587068149764	240
3	836	99.663653094927	241
3	836	99.663653094927	242
3	836	99.663653094927	243
3	836	99.663653094927	244
3	836	99.663653094927	245
3	861	101.087068149764	246
3	861	101.087068149764	247
3	866	103.087068149764	248
3	866	103.087068149764	249
3	871	104.087068149764	250
3	871	104.087068149764	251
3	874	104.163653094927	252
3	874	104.163653094927	253
3	874	104.163653094927	254
3	874	104.163653094927	255
3	874	104.163653094927	256
3	899	105.087068149764	257
3	899	105.087068149764	258
3	904	107.087068149764	259
3	904	107.087068149764	260
3	909	108.587068149764	261
3	909	108.587068149764	262
3	912	108.663653094927	263
3	912	108.663653094927	264
3	912	108.663653094927	265
3	912	108.663653094927	266
3	912	108.663653094927	267
3	930	109.087068149764	268
3	930	109.087068149764	269
3	942	111.087068149764	270
3	942	111.087068149764	271
3	947	113.087068149764	272
3	947	113.087068149764	273
3	948	113.087068149764	274
3	948	113.087068149764	275
3	953	113.163653094927	276
3	953	113.163653094927	277
3	953	113.163653094927	278
3	953	113.163653094927	279
3	953	113.163653094927	280
3	980	115.087068149764	281
3	980	115.087068149764	282
3	985	117.087068149764	283
3	985	117.087068149764	284
3	990	117.587068149764	285
3	990	117.587068149764	286
3	993	117.663653094927	287
3	993	117.663653094927	288
3	993	117.663653094927	289
3	993	117.663653094927	290
3	993	117.663653094927	291
3	1015	119.087068149764	292
3	1015	119.087068149764	293
3	1023	121.087068149764	294
3	1023	121.087068149764	295
3	1028	122.087068149764	296
3	1028	122.087068149764	297
3	1031	122.163653094927	298
3	1031	122.163653094927	299
3	1031	122.163653094927	300
3	1031	122.163653094927	301
3	1031	122.163653094927	302
3	1053	123.087068149764	303
3	1053	123.087068149764	304
3	1061	125.087068149764	305
3	1061	125.087068149764	306
3	1066	126.587068149764	307
3	1066	126.587068149764	308
3	1069	126.663653094927	309
3	1069	126.663653094927	310
3	1069	126.663653094927	311
3	1069	126.663653094927	312
3	1069	126.663653094927	313
3	1087	127.087068149764	314
3	1087	127.087068149764	315
3	1096	129.087068149764	316
3	1096	129.087068149764	317
3	1104	131.087068149764	318
3	1104	131.087068149764	319
3	1105	131.087068149764	320
3	1105	131.087068149764	321
3	1110	131.163653094927	322
3	1110	131.163653094927	323
3	1110	131.163653094927	324
3	1110	131.163653094927	325
3	1110	131.163653094927	326
3	1134	133.087068149764	327
3	1134	133.087068149764	328
3	1142	135.087068149764	329
3	1142	135.087068149764	330
3	1147	135.587068149764	331
3	1147	135.587068149764	332
3	1150	135.663653094927	333
3	1150	135.663653094927	334
3	1150	135.663653094927	335
3	1150	135.663653094927	336
3	1150	135.663653094927	337
3	1172	137.087068149764	338
3	1172	137.087068149764	339
3	1177	139.087068149764	340
3	1177	139.087068149764	341
3	1185	140.087068149764	342
3	1185	140.087068149764	343
3	1188	140.207876302039	344
3	1188	140.207876302039	345
3	1188	140.207876302039	346
3	1188	140.207876302039	347
3	1188	140.207876302039	348
3	1210	141.087068149764	349
3	1210	141.087068149764	350
3	1216	143.087068149764	351
3	1216	143.087068149764	352
3	1221	144.587068149764	353
3	1221	144.587068149764	354
3	1224	144.707876302039	355
3	1224	144.707876302039	356
3	1224	144.707876302039	357
3	1224	144.707876302039	358
3	1224	144.707876302039	359
3	1243	145.087068149764	360
3	1243	145.087068149764	361
3	1254	147.087068149764	362
3	1254	147.087068149764	363
3	1260	149.087068149764	364
3	1260	149.087068149764	365
3	1261	149.087068149764	366
3	1261	149.087068149764	367
3	1266	149.207876302039	368
3	1266	149.207876302039	369
3	1266	149.207876302039	370
3	1266	149.207876302039	371
3	1266	149.207876302039	372
3	1292	151.087068149764	373
3	1292	151.087068149764	374
3	1298	153.087068149764	375
3	1298	153.087068149764	376
3	1302	153.587068149764	377
3	1302	153.587068149764	378
3	1305	153.707876302039	379
3	1305	153.707876302039	380
3	1305	153.707876302039	381
3	1305	153.707876302039	382
3	1305	153.707876302039	383
3	1329	155.087068149764	384
3	1329	155.087068149764	385
3	1334	157.087068149764	386
3	1334	157.087068149764	387
3	1339	158.087068149764	388
3	1339	158.087068149764	389
3	1342	158.163653094927	390
3	1342	158.163653094927	391
3	1342	158.163653094927	392
3	1342	158.163653094927	393
3	1342	158.163653094927	394
3	1365	159.087068149764	395
3	1365	159.087068149764	396
3	1372	161.087068149764	397
3	1372	161.087068149764	398
3	1377	162.587068149764	399
3	1377	162.587068149764	400
3	1380	162.663653094927	401
3	1380	162.663653094927	402
3	1380	162.663653094927	403
3	1380	162.663653094927	404
3	1380	162.663653094927	405
3	1398	163.087068149764	406
3	1398	163.087068149764	407
3	1410	165.087068149764	408
3	1410	165.087068149764	409
3	1415	167.087068149764	410
3	1415	167.087068149764	411
3	1416	167.087068149764	412
3	1416	167.087068149764	413
3	1421	167.163653094927	414
3	1421	167.163653094927	415
3	1421	167.163653094927	416
3	1421	167.163653094927	417
3	1421	167.163653094927	418
3	1446	169.087068149764	419
3	1446	169.087068149764	420
3	1454	171.087068149764	421
3	1454	171.087068149764	422
3	1458	171.587068149764	423
3	1458	171.587068149764	424
3	1461	171.707876302039	425
3	1461	171.707876302039	426
3	1461	171.707876302039	427
3	1461	171.707876302039	428
3	1461	171.707876302039	429
3	1484	173.087068149764	430
3	1484	173.087068149764	431
3	1492	175.087068149764	432
3	1492	175.087068149764	433
3	1497	176.087068149764	434
3	1497	176.087068149764	435
3	1500	176.207876302039	436
3	1500	176.207876302039	437
3	1500	176.207876302039	438
3	1500	176.207876302039	439
3	1500	176.207876302039	440
3	1522	177.087068149764	441
3	1522	177.087068149764	442
3	1528	179.087068149764	443
3	1528	179.087068149764	444
3	1535	180.587068149764	445
3	1535	180.587068149764	446
3	1538	180.707876302039	447
3	1538	180.707876302039	448
3	1538	180.707876302039	449
3	1538	180.707876302039	450
3	1538	180.707876302039	451
3	1555	181.087068149764	452
3	1555	181.087068149764	453
3	1566	183.087068149764	454
3	1566	183.087068149764	455
3	1574	185.087068149764	456
3	1574	185.087068149764	457
3	1575	185.087068149764	458
3	1575	185.087068149764	459
3	1580	185.207876302039	460
3	1580	185.207876302039	461
3	1580	185.207876302039	462
3	1580	185.207876302039	463
3	1580	185.207876302039	464
3	1604	187.087068149764	465
3	1604	187.087068149764	466
3	1610	189.087068149764	467
3	1610	189.087068149764	468
3	1614	189.587068149764	469
3	1614	189.587068149764	470
3	1617	189.707876302039	471
3	1617	189.707876302039	472
3	1617	189.707876302039	473
3	1617	189.707876302039	474
3	1617	189.707876302039	475
3	1642	191.087068149764	476
3	1642	191.087068149764	477
3	1647	193.087068149764	478
3	1647	193.087068149764	479
3	1652	194.087068149764	480
3	1652	194.087068149764	481
3	1655	194.163653094927	482
3	1655	194.163653094927	483
3	1655	194.163653094927	484
3	1655	194.163653094927	485
3	1655	194.163653094927	486
3	1679	195.087068149764	487
3	1679	195.087068149764	488
3	1685	197.087068149764	489
3	1685	197.087068149764	490
3	1690	198.587068149764	491
3	1690	198.587068149764	492
3	1693	198.663653094927	493
3	1693	198.663653094927	494
3	1693	198.663653094927	495
3	1693	198.663653094927	496
3	1693	198.663653094927	497
3	1711	199.087068149764	498
3	1711	199.087068149764	499
3	1722	201.087068149764	500
3	1722	201.087068149764	501
3	1728	203.087068149764	502
3	1728	203.087068149764	503
3	1729	203.087068149764	504
3	1729	203.087068149764	505
3	1734	203.163653094927	506
3	1734	203.163653094927	507
3	1734	203.163653094927	508
3	1734	203.163653094927	509
3	1734	203.163653094927	510
3	1760	205.087068149764	511
3	1760	205.087068149764	512
3	1766	207.087068149764	513
3	1766	207.087068149764	514
3	1771	207.587068149764	515
3	1771	207.587068149764	516
3	1774	207.663653094927	517
3	1774	207.663653094927	518
3	1774	207.663653094927	519
3	1774	207.663653094927	520
3	1774	207.663653094927	521
3	1796	209.087068149764	522
3	1796	209.087068149764	523
3	1803	211.087068149764	524
3	1803	211.087068149764	525
3	1809	212.087068149764	526
3	1809	212.087068149764	527
3	1812	212.163653094927	528
3	1812	212.163653094927	529
3	1812	212.163653094927	530
3	1812	212.163653094927	531
3	1812	212.163653094927	532
3	1834	213.087068149764	533
3	1834	213.087068149764	534
3	1841	215.087068149764	535
3	1841	215.087068149764	536
3	1846	216.587068149764	537
3	1846	216.587068149764	538
3	1849	216.663653094927	539
3	1849	216.663653094927	540
3	1849	216.663653094927	541
3	1849	216.663653094927	542
3	1849	216.663653094927	543
3	1868	217.087068149764	544
3	1868	217.087068149764	545
3	1877	219.087068149764	546
3	1877	219.087068149764	547
3	1884	221.087068149764	548
3	1884	221.087068149764	549
3	1885	221.087068149764	550
3	1885	221.087068149764	551
3	1890	221.163653094927	552
3	1890	221.163653094927	553
3	1890	221.163653094927	554
3	1890	221.163653094927	555
3	1890	221.163653094927	556
3	1915	223.087068149764	557
3	1915	223.087068149764	558
3	1922	225.087068149764	559
3	1922	225.087068149764	560
3	1927	225.587068149764	561
3	1927	225.587068149764	562
3	1930	225.663653094927	563
3	1930	225.663653094927	564
3	1930	225.663653094927	565
3	1930	225.663653094927	566
3	1930	225.663653094927	567
3	1953	227.087068149764	568
3	1953	227.087068149764	569
3	1958	229.087068149764	570
3	1958	229.087068149764	571
3	1965	230.087068149764	572
3	1965	230.087068149764	573
3	1968	230.163653094927	574
3	1968	230.163653094927	575
3	1968	230.163653094927	576
3	1968	230.163653094927	577
3	1968	230.163653094927	578
3	1990	231.087068149764	579
3	1990	231.087068149764	580
3	1996	233.087068149764	581
3	1996	233.087068149764	582
3	2001	234.587068149764	583
3	2001	234.587068149764	584
3	2004	234.663653094927	585
3	2004	234.663653094927	586
3	2004	234.663653094927	587
3	2004	234.663653094927	588
3	2004	234.663653094927	589
3	2024	235.087068149764	590
3	2024	235.087068149764	591
3	2034	237.087068149764	592
3	2034	237.087068149764	593
3	2039	239.087068149764	594
3	2039	239.087068149764	595
3	2040	239.087068149764	596
3	2040	239.087068149764	597
3	2045	239.163653094927	598
3	2045	239.163653094927	599
3	2045	239.163653094927	600
3	2045	239.163653094927	601
3	2045	239.163653094927	602
3	2071	241.087068149764	603
3	2071	241.087068149764	604
3	2077	243.087068149764	605
3	2077	243.087068149764	606
3	2082	243.587068149764	607
3	2082	243.587068149764	608
3	2085	243.663653094927	609
3	2085	243.663653094927	610
3	2085	243.663653094927	611
3	2085	243.663653094927	612
3	2085	243.663653094927	613
3	2109	245.087068149764	614
3	2109	245.087068149764	615
3	2115	247.087068149764	616
3	2115	247.087068149764	617
3	2120	248.087068149764	618
3	2120	248.087068149764	619
3	2123	248.163653094927	620
3	2123	248.163653094927	621
3	2123	248.163653094927	622
3	2123	248.163653094927	623
3	2123	248.163653094927	624
3	2145	249.087068149764	625
3	2145	249.087068149764	626
3	2152	251.087068149764	627
3	2152	251.087068149764	628
3	2158	252.587068149764	629
3	2158	252.587068149764	630
3	2161	252.663653094927	631
3	2161	252.663653094927	632
3	2161	252.663653094927	633
3	2161	252.663653094927	634
3	2161	252.663653094927	635
3	2179	253.087068149764	636
3	2179	253.087068149764	637
3	2190	255.087068149764	638
3	2190	255.087068149764	639
3	2196	257.087068149764	640
3	2196	257.087068149764	641
3	2197	257.087068149764	642
3	2197	257.087068149764	643
3	2202	257.163653094927	644
3	2202	257.163653094927	645
3	2202	257.163653094927	646
3	2202	257.163653094927	647
3	2202	257.163653094927	648
3	2226	259.087068149764	649
3	2226	259.087068149764	650
3	2233	261.087068149764	651
3	2233	261.087068149764	652
3	2238	261.587068149764	653
3	2238	261.587068149764	654
3	2241	261.663653094927	655
3	2241	261.663653094927	656
3	2241	261.663653094927	657
3	2241	261.663653094927	658
3	2241	261.663653094927	659
3	2264	263.087068149764	660
3	2264	263.087068149764	661
3	2271	265.087068149764	662
3	2271	265.087068149764	663
3	2276	266.087068149764	664
3	2276	266.087068149764	665
3	2279	266.163653094927	666
3	2279	266.163653094927	667
3	2279	266.163653094927	668
3	2279	266.163653094927	669
3	2279	266.163653094927	670
3	2302	267.087068149764	671
3	2302	267.087068149764	672
3	2307	269.087068149764	673
3	2307	269.087068149764	674
3	2314	270.587068149764	675
3	2314	270.587068149764	676
3	2317	270.663653094927	677
3	2317	270.663653094927	678
3	2317	270.663653094927	679
3	2317	270.663653094927	680
3	2317	270.663653094927	681
3	2335	271.087068149764	682
3	2335	271.087068149764	683
3	2345	273.087068149764	684
3	2345	273.087068149764	685
3	2352	275.087068149764	686
3	2352	275.087068149764	687
3	2353	275.087068149764	688
3	2353	275.087068149764	689
3	2358	275.163653094927	690
3	2358	275.163653094927	691
3	2358	275.163653094927	692
3	2358	275.163653094927	693
3	2358	275.163653094927	694
3	2383	277.087068149764	695
3	2383	277.087068149764	696
3	2388	279.087068149764	697
3	2388	279.087068149764	698
3	2393	279.587068149764	699
3	2393	279.587068149764	700
3	2396	279.663653094927	701
3	2396	279.663653094927	702
3	2396	279.663653094927	703
3	2396	279.663653094927	704
3	2396	279.663653094927	705
3	2420	281.087068149764	706
3	2420	281.087068149764	707
3	2426	283.087068149764	708
3	2426	283.087068149764	709
3	2431	284.087068149764	710
3	2431	284.087068149764	711
3	2434	284.163653094927	712
3	2434	284.163653094927	713
3	2434	284.163653094927	714
3	2434	284.163653094927	715
3	2434	284.163653094927	716
3	2458	285.087068149764	717
3	2458	285.087068149764	718
3	2464	287.087068149764	719
3	2464	287.087068149764	720
3	2469	288.587068149764	721
3	2469	288.587068149764	722
3	2472	288.663653094927	723
3	2472	288.663653094927	724
3	2472	288.663653094927	725
3	2472	288.663653094927	726
3	2472	288.663653094927	727
3	2490	289.087068149764	728
3	2490	289.087068149764	729
3	2501	291.087068149764	730
3	2501	291.087068149764	731
3	2507	293.087068149764	732
3	2507	293.087068149764	733
3	2508	293.087068149764	734
3	2508	293.087068149764	735
3	2513	293.163653094927	736
3	2513	293.163653094927	737
3	2513	293.163653094927	738
3	2513	293.163653094927	739
3	2513	293.163653094927	740
3	2539	295.087068149764	741
3	2539	295.087068149764	742
3	2545	297.087068149764	743
3	2545	297.087068149764	744
3	2550	297.587068149764	745
3	2550	297.587068149764	746
3	2553	297.663653094927	747
3	2553	297.663653094927	748
3	2553	297.663653094927	749
3	2553	297.663653094927	750
3	2553	297.663653094927	751
3	2575	299.087068149764	752
3	2575	299.087068149764	753
3	2582	301.087068149764	754
3	2582	301.087068149764	755
3	2588	302.087068149764	756
3	2588	302.087068149764	757
3	2591	302.163653094927	758
3	2591	302.163653094927	759
3	2591	302.163653094927	760
3	2591	302.163653094927	761
3	2591	302.163653094927	762
3	2613	303.087068149764	763
3	2613	303.087068149764	764
3	2620	305.087068149764	765
3	2620	305.087068149764	766
3	2625	306.587068149764	767
3	2625	306.587068149764	768
3	2628	306.663653094927	769
3	2628	306.663653094927	770
3	2628	306.663653094927	771
3	2628	306.663653094927	772
3	2628	306.663653094927	773
3	2647	307.087068149764	774
3	2647	307.087068149764	775
3	2656	309.087068149764	776
3	2656	309.087068149764	777
3	2663	311.087068149764	778
3	2663	311.087068149764	779
3	2664	311.087068149764	780
3	2664	311.087068149764	781
3	2669	311.163653094927	782
3	2669	311.163653094927	783
3	2669	311.163653094927	784
3	2669	311.163653094927	785
3	2669	311.163653094927	786
3	2694	313.087068149764	787
3	2694	313.087068149764	788
3	2701	315.087068149764	789
3	2701	315.087068149764	790
3	2706	315.587068149764	791
3	2706	315.587068149764	792
3	2709	315.663653094927	793
3	2709	315.663653094927	794
3	2709	315.663653094927	795
3	2709	315.663653094927	796
3	2709	315.663653094927	797
3	2732	317.087068149764	798
3	2732	317.087068149764	799
3	2737	319.087068149764	800
3	2737	319.087068149764	801
3	2744	320.087068149764	802
3	2744	320.087068149764	803
3	2747	320.163653094927	804
3	2747	320.163653094927	805
3	2747	320.163653094927	806
3	2747	320.163653094927	807
3	2747	320.163653094927	808
3	2769	321.087068149764	809
3	2769	321.087068149764	810
3	2775	323.087068149764	811
3	2775	323.087068149764	812
3	2780	324.587068149764	813
3	2780	324.587068149764	814
3	2783	324.663653094927	815
3	2783	324.663653094927	816
3	2783	324.663653094927	817
3	2783	324.663653094927	818
3	2783	324.663653094927	819
3	2803	325.087068149764	820
3	2803	325.087068149764	821
3	2813	327.087068149764	822
3	2813	327.087068149764	823
3	2818	329.087068149764	824
3	2818	329.087068149764	825
3	2819	329.087068149764	826
3	2819	329.087068149764	827
3	2824	329.163653094927	828
3	2824	329.163653094927	829
3	2824	329.163653094927	830
3	2824	329.163653094927	831
3	2824	329.163653094927	832
3	2850	331.087068149764	833
3	2850	331.087068149764	834
3	2856	333.087068149764	835
3	2856	333.087068149764	836
3	2861	333.587068149764	837
3	2861	333.587068149764	838
3	2864	333.663653094927	839
3	2864	333.663653094927	840
3	2864	333.663653094927	841
3	2864	333.663653094927	842
3	2864	333.663653094927	843
3	2888	335.087068149764	844
3	2888	335.087068149764	845
3	2894	337.087068149764	846
3	2894	337.087068149764	847
3	2899	338.087068149764	848
3	2899	338.087068149764	849
3	2902	338.163653094927	850
3	2902	338.163653094927	851
3	2902	338.163653094927	852
3	2902	338.163653094927	853
3	2902	338.163653094927	854
3	2924	339.087068149764	855
3	2924	339.087068149764	856
3	3095	365.422347700162	857
3	3110	367.422347700162	858
3	3115	367.922347700162	859
3	3149	369.422347700162	860
3	3164	371.422347700162	861
3	3169	372.422347700162	862
3	3194	373.422347700162	863
3	3201	375.422347700162	864
3	3206	376.922347700162	865
3	3228	377.422347700162	866
3	3237	379.422347700162	867
3	3245	381.422347700162	868
3	3246	381.422347700162	869
3	3275	383.422347700162	870
3	3282	385.422347700162	871
3	3287	385.922347700162	872
3	3313	387.422347700162	873
3	3319	389.422347700162	874
3	3326	390.422347700162	875
3	3351	391.422347700162	876
3	3357	393.422347700162	877
3	3362	394.922347700162	878
3	3385	395.422347700162	879
3	3395	397.422347700162	880
3	3402	399.422347700162	881
3	3403	399.422347700162	882
3	3433	401.422347700162	883
3	3439	403.422347700162	884
3	3443	403.922347700162	885
3	3471	405.422347700162	886
3	3477	407.422347700162	887
3	3482	408.422347700162	888
3	3507	409.422347700162	889
3	3518	414.432830904763	890
3	3518	414.432830904763	891
3	3521	414.509415849926	892
3	3521	414.509415849926	893
3	3548	416.509415849926	894
3	3548	416.509415849926	895
3	3557	418.509415849926	896
3	3557	418.509415849926	897
3	3562	419.009415849926	898
3	3562	419.009415849926	899
3	3565	419.086000795089	900
3	3565	419.086000795089	901
3	3565	419.086000795089	902
3	3580	420.509415849926	903
3	3580	420.509415849926	904
3	3589	422.509415849926	905
3	3589	422.509415849926	906
3	3595	423.509415849926	907
3	3595	423.509415849926	908
3	3598	423.586000795089	909
3	3598	423.586000795089	910
3	3598	423.586000795089	911
3	3598	423.586000795089	912
3	3616	424.509415849926	913
3	3616	424.509415849926	914
3	3629	426.509415849926	915
3	3629	426.509415849926	916
3	3636	428.009415849926	917
3	3636	428.009415849926	918
3	3639	428.086000795089	919
3	3639	428.086000795089	920
3	3639	428.086000795089	921
3	3639	428.086000795089	922
3	3639	428.086000795089	923
3	3657	428.509415849926	924
3	3657	428.509415849926	925
3	3667	430.509415849926	926
3	3667	430.509415849926	927
3	3673	432.509415849926	928
3	3673	432.509415849926	929
3	3674	432.509415849926	930
3	3674	432.509415849926	931
3	3679	432.586000795089	932
3	3679	432.586000795089	933
3	3679	432.586000795089	934
3	3679	432.586000795089	935
3	3679	432.586000795089	936
3	3704	434.509415849926	937
3	3704	434.509415849926	938
3	3710	436.509415849926	939
3	3710	436.509415849926	940
3	3716	437.009415849926	941
3	3716	437.009415849926	942
3	3719	437.086000795089	943
3	3719	437.086000795089	944
3	3719	437.086000795089	945
3	3719	437.086000795089	946
3	3719	437.086000795089	947
3	3742	438.509415849926	948
3	3742	438.509415849926	949
3	3748	440.509415849926	950
3	3748	440.509415849926	951
3	3753	441.509415849926	952
3	3753	441.509415849926	953
3	3756	441.586000795089	954
3	3756	441.586000795089	955
3	3756	441.586000795089	956
3	3756	441.586000795089	957
3	3756	441.586000795089	958
3	3779	442.509415849926	959
3	3779	442.509415849926	960
3	3785	444.509415849926	961
3	3785	444.509415849926	962
3	3791	446.009415849926	963
3	3791	446.009415849926	964
3	3794	446.086000795089	965
3	3794	446.086000795089	966
3	3794	446.086000795089	967
3	3794	446.086000795089	968
3	3794	446.086000795089	969
3	3812	446.509415849926	970
3	3812	446.509415849926	971
3	3824	448.509415849926	972
3	3824	448.509415849926	973
3	3831	450.509415849926	974
3	3831	450.509415849926	975
3	3832	450.509415849926	976
3	3832	450.509415849926	977
3	3837	450.586000795089	978
3	3837	450.586000795089	979
3	3837	450.586000795089	980
3	3837	450.586000795089	981
3	3837	450.586000795089	982
3	3860	452.509415849926	983
3	3860	452.509415849926	984
3	3866	454.509415849926	985
3	3866	454.509415849926	986
3	3872	455.009415849926	987
3	3872	455.009415849926	988
3	3875	455.086000795089	989
3	3875	455.086000795089	990
3	3875	455.086000795089	991
3	3875	455.086000795089	992
3	3875	455.086000795089	993
3	3898	456.509415849926	994
3	3898	456.509415849926	995
3	3904	458.509415849926	996
3	3904	458.509415849926	997
3	3909	459.509415849926	998
3	3909	459.509415849926	999
3	3912	459.586000795089	1000
3	3912	459.586000795089	1001
3	3912	459.586000795089	1002
3	3912	459.586000795089	1003
3	3912	459.586000795089	1004
3	3935	460.509415849926	1005
3	3935	460.509415849926	1006
3	3941	462.509415849926	1007
3	3941	462.509415849926	1008
3	3947	464.009415849926	1009
3	3947	464.009415849926	1010
3	3950	464.086000795089	1011
3	3950	464.086000795089	1012
3	3950	464.086000795089	1013
3	3950	464.086000795089	1014
3	3950	464.086000795089	1015
3	3968	464.509415849926	1016
3	3968	464.509415849926	1017
3	3979	466.509415849926	1018
3	3979	466.509415849926	1019
3	3985	468.509415849926	1020
3	3985	468.509415849926	1021
3	3986	468.509415849926	1022
3	3986	468.509415849926	1023
3	3991	468.630224002201	1024
3	3991	468.630224002201	1025
3	3991	468.630224002201	1026
3	3991	468.630224002201	1027
3	3991	468.630224002201	1028
3	4015	470.509415849926	1029
3	4015	470.509415849926	1030
3	4021	472.509415849926	1031
3	4021	472.509415849926	1032
3	4026	473.009415849926	1033
3	4026	473.009415849926	1034
3	4029	473.086000795089	1035
3	4029	473.086000795089	1036
3	4029	473.086000795089	1037
3	4029	473.086000795089	1038
3	4029	473.086000795089	1039
3	4052	474.509415849926	1040
3	4052	474.509415849926	1041
3	4059	476.509415849926	1042
3	4059	476.509415849926	1043
3	4064	477.509415849926	1044
3	4064	477.509415849926	1045
3	4067	477.586000795089	1046
3	4067	477.586000795089	1047
3	4067	477.586000795089	1048
3	4067	477.586000795089	1049
3	4067	477.586000795089	1050
3	4089	478.509415849926	1051
3	4089	478.509415849926	1052
3	4096	480.509415849926	1053
3	4096	480.509415849926	1054
3	4102	482.009415849926	1055
3	4102	482.009415849926	1056
3	4105	482.086000795089	1057
3	4105	482.086000795089	1058
3	4105	482.086000795089	1059
3	4105	482.086000795089	1060
3	4105	482.086000795089	1061
3	4123	482.509415849926	1062
3	4123	482.509415849926	1063
3	4133	484.509415849926	1064
3	4133	484.509415849926	1065
3	4140	486.509415849926	1066
3	4140	486.509415849926	1067
3	4141	486.509415849926	1068
3	4141	486.509415849926	1069
3	4146	486.586000795089	1070
3	4146	486.586000795089	1071
3	4146	486.586000795089	1072
3	4146	486.586000795089	1073
3	4146	486.586000795089	1074
3	4170	488.509415849926	1075
3	4170	488.509415849926	1076
3	4177	490.509415849926	1077
3	4177	490.509415849926	1078
3	4183	491.009415849926	1079
3	4183	491.009415849926	1080
3	4186	491.086000795089	1081
3	4186	491.086000795089	1082
3	4186	491.086000795089	1083
3	4186	491.086000795089	1084
3	4186	491.086000795089	1085
3	4208	492.509415849926	1086
3	4208	492.509415849926	1087
3	4214	494.509415849926	1088
3	4214	494.509415849926	1089
3	4220	495.509415849926	1090
3	4220	495.509415849926	1091
3	4223	495.586000795089	1092
3	4223	495.586000795089	1093
3	4223	495.586000795089	1094
3	4223	495.586000795089	1095
3	4223	495.586000795089	1096
3	4246	496.509415849926	1097
3	4246	496.509415849926	1098
3	4251	498.509415849926	1099
3	4251	498.509415849926	1100
3	4258	500.009415849926	1101
3	4258	500.009415849926	1102
3	4261	500.086000795089	1103
3	4261	500.086000795089	1104
3	4261	500.086000795089	1105
3	4261	500.086000795089	1106
3	4261	500.086000795089	1107
3	4279	500.509415849926	1108
3	4279	500.509415849926	1109
3	4289	502.509415849926	1110
3	4289	502.509415849926	1111
3	4295	504.509415849926	1112
3	4295	504.509415849926	1113
3	4296	504.509415849926	1114
3	4296	504.509415849926	1115
3	4301	504.586000795089	1116
3	4301	504.586000795089	1117
3	4301	504.586000795089	1118
3	4301	504.586000795089	1119
3	4301	504.586000795089	1120
3	4327	506.509415849926	1121
3	4327	506.509415849926	1122
3	4332	508.509415849926	1123
3	4332	508.509415849926	1124
3	4338	509.009415849926	1125
3	4338	509.009415849926	1126
3	4341	509.086000795089	1127
3	4341	509.086000795089	1128
3	4341	509.086000795089	1129
3	4341	509.086000795089	1130
3	4341	509.086000795089	1131
3	4364	510.509415849926	1132
3	4364	510.509415849926	1133
3	4370	512.509415849926	1134
3	4370	512.509415849926	1135
3	4375	513.509415849926	1136
3	4375	513.509415849926	1137
3	4378	513.586000795089	1138
3	4378	513.586000795089	1139
3	4378	513.586000795089	1140
3	4378	513.586000795089	1141
3	4378	513.586000795089	1142
3	4401	514.509415849926	1143
3	4401	514.509415849926	1144
3	4408	516.509415849926	1145
3	4408	516.509415849926	1146
3	4413	518.009415849926	1147
3	4413	518.009415849926	1148
3	4416	518.086000795089	1149
3	4416	518.086000795089	1150
3	4416	518.086000795089	1151
3	4416	518.086000795089	1152
3	4416	518.086000795089	1153
3	4434	518.509415849926	1154
3	4434	518.509415849926	1155
3	4445	520.509415849926	1156
3	4445	520.509415849926	1157
3	4451	522.509415849926	1158
3	4451	522.509415849926	1159
3	4452	522.509415849926	1160
3	4452	522.509415849926	1161
3	4457	522.586000795089	1162
3	4457	522.586000795089	1163
3	4457	522.586000795089	1164
3	4457	522.586000795089	1165
3	4457	522.586000795089	1166
3	4482	524.509415849926	1167
3	4482	524.509415849926	1168
3	4489	526.509415849926	1169
3	4489	526.509415849926	1170
3	4494	527.009415849926	1171
3	4494	527.009415849926	1172
3	4497	527.086000795089	1173
3	4497	527.086000795089	1174
3	4497	527.086000795089	1175
3	4497	527.086000795089	1176
3	4497	527.086000795089	1177
3	4519	528.509415849926	1178
3	4519	528.509415849926	1179
3	4526	530.509415849926	1180
3	4526	530.509415849926	1181
3	4532	531.509415849926	1182
3	4532	531.509415849926	1183
3	4535	531.586000795089	1184
3	4535	531.586000795089	1185
3	4535	531.586000795089	1186
3	4535	531.586000795089	1187
3	4535	531.586000795089	1188
3	4557	532.509415849926	1189
3	4557	532.509415849926	1190
3	4563	534.509415849926	1191
3	4563	534.509415849926	1192
3	4570	536.009415849926	1193
3	4570	536.009415849926	1194
3	4573	536.086000795089	1195
3	4573	536.086000795089	1196
3	4573	536.086000795089	1197
3	4573	536.086000795089	1198
3	4573	536.086000795089	1199
3	4591	536.509415849926	1200
3	4591	536.509415849926	1201
3	4600	538.509415849926	1202
3	4600	538.509415849926	1203
3	4607	540.509415849926	1204
3	4607	540.509415849926	1205
3	4608	540.509415849926	1206
3	4608	540.509415849926	1207
3	4613	540.586000795089	1208
3	4613	540.586000795089	1209
3	4613	540.586000795089	1210
3	4613	540.586000795089	1211
3	4613	540.586000795089	1212
3	4638	542.509415849926	1213
3	4638	542.509415849926	1214
3	4644	544.509415849926	1215
3	4644	544.509415849926	1216
3	4879	573.344695400324	1217
3	4905	574.844695400324	1218
3	4911	576.844695400324	1219
3	4916	577.844695400324	1220
3	4942	578.844695400324	1221
3	4948	580.844695400324	1222
3	4954	582.344695400324	1223
3	4975	582.844695400324	1224
3	4986	584.844695400324	1225
3	4993	586.844695400324	1226
3	4994	586.844695400324	1227
3	5023	588.844695400324	1228
3	5029	590.844695400324	1229
3	5035	591.344695400324	1230
3	5060	592.844695400324	1231
3	5067	594.844695400324	1232
3	5072	595.844695400324	1233
3	5098	596.844695400324	1234
3	5104	598.844695400324	1235
3	5110	600.344695400324	1236
3	5131	600.844695400324	1237
3	5141	602.844695400324	1238
3	5149	604.844695400324	1239
3	5150	604.844695400324	1240
3	5179	606.844695400324	1241
3	5185	608.844695400324	1242
3	5191	609.344695400324	1243
3	5216	610.844695400324	1244
3	5222	612.844695400324	1245
3	5228	613.844695400324	1246
3	5254	614.844695400324	1247
3	5260	616.844695400324	1248
3	5266	618.344695400324	1249
3	5287	618.844695400324	1250
3	5297	620.844695400324	1251
3	5304	622.844695400324	1252
3	5305	622.844695400324	1253
3	5335	624.844695400324	1254
3	5341	626.844695400324	1255
3	5346	627.344695400324	1256
3	5372	628.844695400324	1257
3	5378	630.844695400324	1258
3	5384	631.844695400324	1259
3	5409	632.844695400324	1260
3	5416	634.844695400324	1261
3	5422	636.344695400324	1262
3	5443	636.844695400324	1263
3	5453	638.844695400324	1264
3	5460	640.844695400324	1265
3	5461	640.844695400324	1266
3	5490	642.844695400324	1267
3	5497	644.844695400324	1268
3	5502	645.344695400324	1269
3	5528	646.844695400324	1270
3	5534	648.844695400324	1271
3	5540	649.844695400324	1272
3	5565	650.844695400324	1273
3	5571	652.844695400324	1274
3	5578	654.344695400324	1275
3	5599	654.844695400324	1276
3	5609	656.844695400324	1277
3	5645	660.844695400324	1278
3	5651	662.844695400324	1279
3	5656	663.344695400324	1280
3	5683	664.844695400324	1281
3	5689	666.844695400324	1282
3	5694	667.844695400324	1283
3	5719	668.844695400324	1284
3	5726	670.844695400324	1285
3	5732	672.344695400324	1286
3	5753	672.844695400324	1287
3	5764	674.844695400324	1288
3	5771	676.844695400324	1289
3	5772	676.844695400324	1290
3	5800	678.844695400324	1291
3	5807	680.844695400324	1292
3	5845	685.855178604925	1293
3	5845	685.855178604925	1294
3	5848	685.931763550088	1295
3	5848	685.931763550088	1296
3	5854	687.931763550088	1297
3	5854	687.931763550088	1298
3	5865	689.931763550088	1299
3	5865	689.931763550088	1300
3	5884	691.931763550088	1301
3	5884	691.931763550088	1302
3	5894	693.931763550088	1303
3	5894	693.931763550088	1304
3	5901	694.931763550088	1305
3	5901	694.931763550088	1306
3	5905	695.008348495251	1307
3	5905	695.008348495251	1308
3	5916	695.931763550088	1309
3	5916	695.931763550088	1310
3	5926	697.931763550088	1311
3	5926	697.931763550088	1312
3	5934	699.431763550088	1313
3	5934	699.431763550088	1314
3	5937	699.508348495251	1315
3	5937	699.508348495251	1316
3	5937	699.508348495251	1317
3	5947	699.931763550088	1318
3	5947	699.931763550088	1319
3	5956	701.931763550088	1320
3	5956	701.931763550088	1321
3	5968	703.931763550088	1322
3	5968	703.931763550088	1323
3	5969	703.931763550088	1324
3	5969	703.931763550088	1325
3	5977	704.008348495251	1326
3	5977	704.008348495251	1327
3	5977	704.008348495251	1328
3	5977	704.008348495251	1329
3	5997	705.931763550088	1330
3	5997	705.931763550088	1331
3	6003	707.931763550088	1332
3	6003	707.931763550088	1333
3	6008	708.431763550088	1334
3	6008	708.431763550088	1335
3	6011	708.508348495251	1336
3	6011	708.508348495251	1337
3	6011	708.508348495251	1338
3	6011	708.508348495251	1339
3	6030	709.931763550088	1340
3	6030	709.931763550088	1341
3	6044	711.931763550088	1342
3	6044	711.931763550088	1343
3	6049	712.931763550088	1344
3	6049	712.931763550088	1345
3	6053	713.008348495251	1346
3	6053	713.008348495251	1347
3	6053	713.008348495251	1348
3	6053	713.008348495251	1349
3	6053	713.008348495251	1350
3	6074	713.931763550088	1351
3	6074	713.931763550088	1352
3	6082	715.931763550088	1353
3	6082	715.931763550088	1354
3	6088	717.431763550088	1355
3	6088	717.431763550088	1356
3	6091	717.508348495251	1357
3	6091	717.508348495251	1358
3	6091	717.508348495251	1359
3	6091	717.508348495251	1360
3	6091	717.508348495251	1361
3	6108	717.931763550088	1362
3	6108	717.931763550088	1363
3	6119	719.931763550088	1364
3	6119	719.931763550088	1365
3	6125	721.931763550088	1366
3	6125	721.931763550088	1367
3	6126	721.931763550088	1368
3	6126	721.931763550088	1369
3	6131	722.008348495251	1370
3	6131	722.008348495251	1371
3	6131	722.008348495251	1372
3	6131	722.008348495251	1373
3	6131	722.008348495251	1374
3	6155	723.931763550088	1375
3	6155	723.931763550088	1376
3	6163	725.931763550088	1377
3	6163	725.931763550088	1378
3	6168	726.431763550088	1379
3	6168	726.431763550088	1380
3	6171	726.508348495251	1381
3	6171	726.508348495251	1382
3	6171	726.508348495251	1383
3	6171	726.508348495251	1384
3	6171	726.508348495251	1385
3	6193	727.931763550088	1386
3	6193	727.931763550088	1387
3	6246	738.267043100486	1388
3	6251	738.767043100486	1389
3	6274	740.267043100486	1390
3	6290	742.267043100486	1391
3	6297	743.267043100486	1392
3	6322	744.267043100486	1393
3	6329	746.267043100486	1394
3	6335	747.767043100486	1395
3	6356	748.267043100486	1396
3	6367	750.267043100486	1397
3	6374	752.267043100486	1398
3	6375	752.267043100486	1399
3	6403	754.267043100486	1400
3	6410	756.267043100486	1401
3	6415	756.767043100486	1402
3	6441	758.267043100486	1403
3	6448	760.267043100486	1404
3	6453	761.267043100486	1405
3	6479	762.267043100486	1406
3	6484	764.267043100486	1407
3	6491	765.767043100486	1408
3	6512	766.267043100486	1409
3	6522	768.267043100486	1410
3	6530	770.267043100486	1411
3	6531	770.267043100486	1412
3	6560	772.267043100486	1413
3	6565	774.267043100486	1414
3	6570	774.767043100486	1415
3	6597	776.267043100486	1416
3	6603	778.267043100486	1417
3	6608	779.267043100486	1418
3	6635	780.267043100486	1419
3	6641	782.267043100486	1420
3	6646	783.767043100486	1421
3	6667	784.267043100486	1422
3	6678	786.267043100486	1423
3	6685	788.267043100486	1424
3	6686	788.267043100486	1425
3	6716	790.267043100486	1426
3	6722	792.267043100486	1427
3	6727	792.767043100486	1428
3	6752	794.267043100486	1429
3	6759	796.267043100486	1430
3	6765	797.267043100486	1431
3	6790	798.267043100486	1432
3	6797	800.267043100486	1433
3	6802	801.767043100486	1434
3	6824	802.267043100486	1435
3	6833	804.267043100486	1436
3	6841	806.267043100486	1437
3	6842	806.267043100486	1438
3	7314	860.267043100486	1439
3	7315	860.267043100486	1440
3	7343	862.267043100486	1441
3	7349	864.267043100486	1442
3	7354	864.767043100486	1443
3	7381	866.267043100486	1444
3	7386	868.267043100486	1445
3	7392	869.267043100486	1446
3	7419	870.267043100486	1447
3	7424	872.267043100486	1448
3	7429	873.767043100486	1449
3	7451	874.267043100486	1450
3	7462	876.267043100486	1451
3	7468	878.267043100486	1452
3	7469	878.267043100486	1453
3	7500	880.267043100486	1454
3	7505	882.267043100486	1455
3	7510	882.767043100486	1456
3	7536	884.267043100486	1457
3	7543	886.267043100486	1458
3	7548	887.267043100486	1459
3	7573	888.267043100486	1460
3	7581	890.267043100486	1461
3	7586	891.767043100486	1462
3	7607	892.267043100486	1463
3	7617	894.267043100486	1464
3	7625	896.267043100486	1465
3	7626	896.267043100486	1466
3	7654	898.267043100486	1467
3	7662	900.267043100486	1468
3	7667	900.767043100486	1469
3	7692	902.267043100486	1470
3	7698	904.267043100486	1471
3	7705	905.267043100486	1472
3	7730	906.267043100486	1473
3	7735	908.267043100486	1474
3	7741	909.767043100486	1475
3	7764	910.267043100486	1476
3	7773	912.267043100486	1477
3	7780	914.267043100486	1478
3	7781	914.267043100486	1479
3	7811	916.267043100486	1480
3	7816	918.267043100486	1481
3	7821	918.767043100486	1482
3	7849	920.267043100486	1483
3	7854	922.267043100486	1484
3	7859	923.267043100486	1485
3	7885	924.267043100486	1486
3	7892	926.267043100486	1487
3	7897	927.767043100486	1488
3	7918	928.267043100486	1489
3	7930	930.267043100486	1490
3	7936	932.267043100486	1491
3	7937	932.267043100486	1492
3	7966	934.267043100486	1493
3	7973	936.267043100486	1494
3	7978	936.767043100486	1495
3	8003	938.267043100486	1496
3	8011	940.267043100486	1497
3	8016	941.267043100486	1498
3	8041	942.267043100486	1499
3	8047	944.267043100486	1500
3	8054	945.767043100486	1501
3	8075	946.267043100486	1502
3	8084	948.267043100486	1503
3	8093	950.267043100486	1504
3	8094	950.267043100486	1505
3	8122	952.267043100486	1506
3	8128	954.267043100486	1507
3	8133	954.767043100486	1508
3	8160	956.267043100486	1509
3	8165	958.267043100486	1510
3	8171	959.267043100486	1511
3	8198	960.267043100486	1512
3	8203	962.267043100486	1513
3	8208	963.767043100486	1514
3	8230	964.267043100486	1515
3	8241	966.267043100486	1516
3	8247	968.267043100486	1517
3	8248	968.267043100486	1518
3	8279	970.267043100486	1519
3	8284	972.267043100486	1520
3	8289	972.767043100486	1521
3	8315	974.267043100486	1522
3	8322	976.267043100486	1523
3	8327	977.267043100486	1524
3	8352	978.267043100486	1525
3	8360	980.267043100486	1526
3	8365	981.767043100486	1527
3	8386	982.267043100486	1528
3	8396	984.267043100486	1529
3	8404	986.267043100486	1530
3	8405	986.267043100486	1531
3	8433	988.267043100486	1532
3	8441	990.267043100486	1533
3	8446	990.767043100486	1534
3	8471	992.267043100486	1535
3	8477	994.267043100486	1536
3	8484	995.267043100486	1537
3	8509	996.267043100486	1538
3	8514	998.267043100486	1539
3	8520	999.767043100486	1540
3	8543	1000.267043100486	1541
3	8552	1002.267043100486	1542
3	8559	1004.267043100486	1543
3	8560	1004.267043100486	1544
3	8590	1006.267043100486	1545
3	8595	1008.267043100486	1546
3	8600	1008.767043100486	1547
3	8628	1010.267043100486	1548
3	8633	1012.267043100486	1549
3	8638	1013.267043100486	1550
3	8664	1014.267043100486	1551
3	8671	1016.267043100486	1552
3	8676	1017.767043100486	1553
3	8697	1018.267043100486	1554
3	8709	1020.267043100486	1555
3	8715	1022.267043100486	1556
3	8716	1022.267043100486	1557
3	8745	1024.267043100486	1558
3	8752	1026.267043100486	1559
3	8757	1026.767043100486	1560
3	8782	1028.267043100486	1561
3	8790	1030.267043100486	1562
3	8795	1031.267043100486	1563
3	8820	1032.267043100486	1564
3	8826	1034.267043100486	1565
3	8833	1035.767043100486	1566
3	8854	1036.267043100486	1567
3	8863	1038.267043100486	1568
3	8884	1043.277526305087	1569
3	8884	1043.277526305087	1570
3	8887	1043.35411125025	1571
3	8887	1043.35411125025	1572
3	8907	1045.35411125025	1573
3	8907	1045.35411125025	1574
3	8913	1047.35411125025	1575
3	8913	1047.35411125025	1576
3	8917	1047.85411125025	1577
3	8917	1047.85411125025	1578
3	8920	1047.930696195413	1579
3	8920	1047.930696195413	1580
3	8941	1049.35411125025	1581
3	8941	1049.35411125025	1582
3	8947	1051.35411125025	1583
3	8947	1051.35411125025	1584
3	8952	1052.35411125025	1585
3	8952	1052.35411125025	1586
3	8955	1052.430696195413	1587
3	8955	1052.430696195413	1588
3	8955	1052.430696195413	1589
3	8955	1052.430696195413	1590
3	8973	1053.35411125025	1591
3	8973	1053.35411125025	1592
3	8987	1055.35411125025	1593
3	8987	1055.35411125025	1594
3	8993	1056.85411125025	1595
3	8993	1056.85411125025	1596
3	8996	1056.930696195413	1597
3	8996	1056.930696195413	1598
3	8996	1056.930696195413	1599
3	8996	1056.930696195413	1600
3	8996	1056.930696195413	1601
3	9014	1057.35411125025	1602
3	9014	1057.35411125025	1603
3	9024	1059.35411125025	1604
3	9024	1059.35411125025	1605
3	9031	1061.35411125025	1606
3	9031	1061.35411125025	1607
3	9032	1061.35411125025	1608
3	9032	1061.35411125025	1609
3	9037	1061.430696195413	1610
3	9037	1061.430696195413	1611
3	9037	1061.430696195413	1612
3	9037	1061.430696195413	1613
3	9037	1061.430696195413	1614
3	9061	1063.35411125025	1615
3	9061	1063.35411125025	1616
3	9069	1065.35411125025	1617
3	9069	1065.35411125025	1618
3	9074	1065.85411125025	1619
3	9074	1065.85411125025	1620
3	9077	1065.930696195413	1621
3	9077	1065.930696195413	1622
3	9077	1065.930696195413	1623
3	9077	1065.930696195413	1624
3	9077	1065.930696195413	1625
3	9099	1067.35411125025	1626
3	9099	1067.35411125025	1627
3	9105	1069.35411125025	1628
3	9105	1069.35411125025	1629
3	9112	1070.35411125025	1630
3	9112	1070.35411125025	1631
3	9115	1070.430696195413	1632
3	9115	1070.430696195413	1633
3	9115	1070.430696195413	1634
3	9115	1070.430696195413	1635
3	9115	1070.430696195413	1636
3	9137	1071.35411125025	1637
3	9137	1071.35411125025	1638
3	9142	1073.35411125025	1639
3	9142	1073.35411125025	1640
3	9148	1074.85411125025	1641
3	9148	1074.85411125025	1642
3	9151	1074.930696195413	1643
3	9151	1074.930696195413	1644
3	9151	1074.930696195413	1645
3	9151	1074.930696195413	1646
3	9151	1074.930696195413	1647
3	9171	1075.35411125025	1648
3	9171	1075.35411125025	1649
3	9180	1077.35411125025	1650
3	9180	1077.35411125025	1651
3	9186	1079.35411125025	1652
3	9186	1079.35411125025	1653
3	9187	1079.35411125025	1654
3	9187	1079.35411125025	1655
3	9192	1079.430696195413	1656
3	9192	1079.430696195413	1657
3	9192	1079.430696195413	1658
3	9192	1079.430696195413	1659
3	9192	1079.430696195413	1660
3	9218	1081.35411125025	1661
3	9218	1081.35411125025	1662
3	9223	1083.35411125025	1663
3	9223	1083.35411125025	1664
3	9228	1083.85411125025	1665
3	9228	1083.85411125025	1666
3	9231	1083.930696195413	1667
3	9231	1083.930696195413	1668
3	9231	1083.930696195413	1669
3	9231	1083.930696195413	1670
3	9231	1083.930696195413	1671
3	9256	1085.35411125025	1672
3	9256	1085.35411125025	1673
3	9261	1087.35411125025	1674
3	9261	1087.35411125025	1675
3	9266	1088.35411125025	1676
3	9266	1088.35411125025	1677
3	9269	1088.430696195413	1678
3	9269	1088.430696195413	1679
3	9269	1088.430696195413	1680
3	9269	1088.430696195413	1681
3	9269	1088.430696195413	1682
3	9292	1089.35411125025	1683
3	9292	1089.35411125025	1684
3	9299	1091.35411125025	1685
3	9299	1091.35411125025	1686
3	9304	1092.85411125025	1687
3	9304	1092.85411125025	1688
3	9307	1092.930696195413	1689
3	9307	1092.930696195413	1690
3	9307	1092.930696195413	1691
3	9307	1092.930696195413	1692
3	9307	1092.930696195413	1693
3	9325	1093.35411125025	1694
3	9325	1093.35411125025	1695
3	9337	1095.35411125025	1696
3	9337	1095.35411125025	1697
3	9342	1097.35411125025	1698
3	9342	1097.35411125025	1699
3	9343	1097.35411125025	1700
3	9343	1097.35411125025	1701
3	9348	1097.430696195413	1702
3	9348	1097.430696195413	1703
3	9348	1097.430696195413	1704
3	9348	1097.430696195413	1705
3	9348	1097.430696195413	1706
3	9373	1099.35411125025	1707
3	9373	1099.35411125025	1708
3	9380	1101.35411125025	1709
3	9380	1101.35411125025	1710
3	9385	1101.85411125025	1711
3	9385	1101.85411125025	1712
3	9388	1101.930696195413	1713
3	9388	1101.930696195413	1714
3	9388	1101.930696195413	1715
3	9388	1101.930696195413	1716
3	9388	1101.930696195413	1717
3	9410	1103.35411125025	1718
3	9410	1103.35411125025	1719
3	9418	1105.35411125025	1720
3	9418	1105.35411125025	1721
3	9423	1106.35411125025	1722
3	9423	1106.35411125025	1723
3	9426	1106.430696195413	1724
3	9426	1106.430696195413	1725
3	9426	1106.430696195413	1726
3	9426	1106.430696195413	1727
3	9426	1106.430696195413	1728
3	9448	1107.35411125025	1729
3	9448	1107.35411125025	1730
3	9454	1109.35411125025	1731
3	9454	1109.35411125025	1732
3	9461	1110.85411125025	1733
3	9461	1110.85411125025	1734
3	9464	1110.930696195413	1735
3	9464	1110.930696195413	1736
3	9464	1110.930696195413	1737
3	9464	1110.930696195413	1738
3	9464	1110.930696195413	1739
3	9482	1111.35411125025	1740
3	9482	1111.35411125025	1741
3	9491	1113.35411125025	1742
3	9491	1113.35411125025	1743
3	9499	1115.35411125025	1744
3	9499	1115.35411125025	1745
3	9500	1115.35411125025	1746
3	9500	1115.35411125025	1747
3	9505	1115.430696195413	1748
3	9505	1115.430696195413	1749
3	9505	1115.430696195413	1750
3	9505	1115.430696195413	1751
3	9505	1115.430696195413	1752
3	9529	1117.35411125025	1753
3	9529	1117.35411125025	1754
3	9535	1119.35411125025	1755
3	9535	1119.35411125025	1756
3	9540	1119.85411125025	1757
3	9540	1119.85411125025	1758
3	9543	1119.930696195413	1759
3	9543	1119.930696195413	1760
3	9543	1119.930696195413	1761
3	9543	1119.930696195413	1762
3	9543	1119.930696195413	1763
3	9567	1121.35411125025	1764
3	9567	1121.35411125025	1765
3	9572	1123.35411125025	1766
3	9572	1123.35411125025	1767
3	9578	1124.35411125025	1768
3	9578	1124.35411125025	1769
3	9581	1124.430696195413	1770
3	9581	1124.430696195413	1771
3	9581	1124.430696195413	1772
3	9581	1124.430696195413	1773
3	9581	1124.430696195413	1774
3	9605	1125.35411125025	1775
3	9605	1125.35411125025	1776
3	9610	1127.35411125025	1777
3	9610	1127.35411125025	1778
3	9615	1128.85411125025	1779
3	9615	1128.85411125025	1780
3	9618	1128.930696195413	1781
3	9618	1128.930696195413	1782
3	9618	1128.930696195413	1783
3	9618	1128.930696195413	1784
3	9618	1128.930696195413	1785
3	9637	1129.35411125025	1786
3	9637	1129.35411125025	1787
3	9648	1131.35411125025	1788
3	9648	1131.35411125025	1789
3	9653	1133.35411125025	1790
3	9653	1133.35411125025	1791
3	9654	1133.35411125025	1792
3	9654	1133.35411125025	1793
3	9659	1133.430696195413	1794
3	9659	1133.430696195413	1795
3	9659	1133.430696195413	1796
3	9659	1133.430696195413	1797
3	9659	1133.430696195413	1798
3	9686	1135.35411125025	1799
3	9686	1135.35411125025	1800
3	9691	1137.35411125025	1801
3	9691	1137.35411125025	1802
3	9696	1137.85411125025	1803
3	9696	1137.85411125025	1804
3	9699	1137.930696195413	1805
3	9699	1137.930696195413	1806
3	9699	1137.930696195413	1807
3	9699	1137.930696195413	1808
3	9699	1137.930696195413	1809
3	9722	1139.35411125025	1810
3	9722	1139.35411125025	1811
3	9729	1141.35411125025	1812
3	9729	1141.35411125025	1813
3	9734	1142.35411125025	1814
3	9734	1142.35411125025	1815
3	9737	1142.430696195413	1816
3	9737	1142.430696195413	1817
3	9737	1142.430696195413	1818
3	9737	1142.430696195413	1819
3	9737	1142.430696195413	1820
3	9759	1143.35411125025	1821
3	9759	1143.35411125025	1822
3	9767	1145.35411125025	1823
3	9767	1145.35411125025	1824
3	9772	1146.85411125025	1825
3	9772	1146.85411125025	1826
3	9775	1146.930696195413	1827
3	9775	1146.930696195413	1828
3	9775	1146.930696195413	1829
3	9775	1146.930696195413	1830
3	9775	1146.930696195413	1831
3	9793	1147.35411125025	1832
3	9793	1147.35411125025	1833
3	9803	1149.35411125025	1834
3	9803	1149.35411125025	1835
3	9810	1151.35411125025	1836
3	9810	1151.35411125025	1837
3	9811	1151.35411125025	1838
3	9811	1151.35411125025	1839
3	9816	1151.430696195413	1840
3	9816	1151.430696195413	1841
3	9816	1151.430696195413	1842
3	9816	1151.430696195413	1843
3	9816	1151.430696195413	1844
3	9840	1153.35411125025	1845
3	9840	1153.35411125025	1846
3	9848	1155.35411125025	1847
3	9848	1155.35411125025	1848
3	9853	1155.85411125025	1849
3	9853	1155.85411125025	1850
3	9856	1155.930696195413	1851
3	9856	1155.930696195413	1852
3	9856	1155.930696195413	1853
3	9856	1155.930696195413	1854
3	9856	1155.930696195413	1855
3	9878	1157.35411125025	1856
3	9878	1157.35411125025	1857
3	9884	1159.35411125025	1858
3	9884	1159.35411125025	1859
3	9891	1160.35411125025	1860
3	9891	1160.35411125025	1861
3	9894	1160.430696195413	1862
3	9894	1160.430696195413	1863
3	9894	1160.430696195413	1864
3	9894	1160.430696195413	1865
3	9894	1160.430696195413	1866
3	9916	1161.35411125025	1867
3	9916	1161.35411125025	1868
3	9921	1163.35411125025	1869
3	9921	1163.35411125025	1870
3	9927	1164.85411125025	1871
3	9927	1164.85411125025	1872
3	9930	1164.930696195413	1873
3	9930	1164.930696195413	1874
3	9930	1164.930696195413	1875
3	9930	1164.930696195413	1876
3	9930	1164.930696195413	1877
3	9950	1165.35411125025	1878
3	9950	1165.35411125025	1879
3	9959	1167.35411125025	1880
3	9959	1167.35411125025	1881
3	9965	1169.35411125025	1882
3	9965	1169.35411125025	1883
3	9966	1169.35411125025	1884
3	9966	1169.35411125025	1885
3	9971	1169.430696195413	1886
3	9971	1169.430696195413	1887
3	9971	1169.430696195413	1888
3	9971	1169.430696195413	1889
3	9971	1169.430696195413	1890
3	9997	1171.35411125025	1891
3	9997	1171.35411125025	1892
3	10002	1173.35411125025	1893
3	10002	1173.35411125025	1894
3	10007	1173.85411125025	1895
3	10007	1173.85411125025	1896
3	10010	1173.930696195413	1897
3	10010	1173.930696195413	1898
3	10010	1173.930696195413	1899
3	10010	1173.930696195413	1900
3	10010	1173.930696195413	1901
3	10035	1175.35411125025	1902
3	10035	1175.35411125025	1903
3	10040	1177.35411125025	1904
3	10040	1177.35411125025	1905
3	10045	1178.35411125025	1906
3	10045	1178.35411125025	1907
3	10048	1178.430696195413	1908
3	10048	1178.430696195413	1909
3	10048	1178.430696195413	1910
3	10048	1178.430696195413	1911
3	10048	1178.430696195413	1912
3	10071	1179.35411125025	1913
3	10071	1179.35411125025	1914
3	10078	1181.35411125025	1915
3	10078	1181.35411125025	1916
3	10083	1182.85411125025	1917
3	10083	1182.85411125025	1918
3	10086	1182.930696195413	1919
3	10086	1182.930696195413	1920
3	10086	1182.930696195413	1921
3	10086	1182.930696195413	1922
3	10086	1182.930696195413	1923
3	10104	1183.35411125025	1924
3	10104	1183.35411125025	1925
3	10116	1185.35411125025	1926
3	10116	1185.35411125025	1927
3	10121	1187.35411125025	1928
3	10121	1187.35411125025	1929
3	10122	1187.35411125025	1930
3	10122	1187.35411125025	1931
3	10127	1187.430696195413	1932
3	10127	1187.430696195413	1933
3	10127	1187.430696195413	1934
3	10127	1187.430696195413	1935
3	10127	1187.430696195413	1936
3	10152	1189.35411125025	1937
3	10152	1189.35411125025	1938
3	10159	1191.35411125025	1939
3	10159	1191.35411125025	1940
3	10164	1191.85411125025	1941
3	10164	1191.85411125025	1942
3	10167	1191.930696195413	1943
3	10167	1191.930696195413	1944
3	10167	1191.930696195413	1945
3	10167	1191.930696195413	1946
3	10167	1191.930696195413	1947
3	10189	1193.35411125025	1948
3	10189	1193.35411125025	1949
3	10197	1195.35411125025	1950
3	10197	1195.35411125025	1951
3	10202	1196.35411125025	1952
3	10202	1196.35411125025	1953
3	10205	1196.430696195413	1954
3	10205	1196.430696195413	1955
3	10205	1196.430696195413	1956
3	10205	1196.430696195413	1957
3	10205	1196.430696195413	1958
3	10227	1197.35411125025	1959
3	10227	1197.35411125025	1960
3	10233	1199.35411125025	1961
3	10233	1199.35411125025	1962
3	10240	1200.85411125025	1963
3	10240	1200.85411125025	1964
3	10243	1200.930696195413	1965
3	10243	1200.930696195413	1966
3	10243	1200.930696195413	1967
3	10243	1200.930696195413	1968
3	10243	1200.930696195413	1969
3	10261	1201.35411125025	1970
3	10261	1201.35411125025	1971
3	10270	1203.35411125025	1972
3	10270	1203.35411125025	1973
3	10278	1205.35411125025	1974
3	10278	1205.35411125025	1975
3	10279	1205.35411125025	1976
3	10279	1205.35411125025	1977
3	10284	1205.430696195413	1978
3	10284	1205.430696195413	1979
3	10284	1205.430696195413	1980
3	10284	1205.430696195413	1981
3	10284	1205.430696195413	1982
3	10308	1207.35411125025	1983
3	10308	1207.35411125025	1984
3	10314	1209.35411125025	1985
3	10314	1209.35411125025	1986
3	10319	1209.85411125025	1987
3	10319	1209.85411125025	1988
3	10322	1209.930696195413	1989
3	10322	1209.930696195413	1990
3	10322	1209.930696195413	1991
3	10322	1209.930696195413	1992
3	10322	1209.930696195413	1993
3	10346	1211.35411125025	1994
3	10346	1211.35411125025	1995
3	10351	1213.35411125025	1996
3	10351	1213.35411125025	1997
3	10357	1214.35411125025	1998
3	10357	1214.35411125025	1999
3	10360	1214.430696195413	2000
3	10360	1214.430696195413	2001
3	10360	1214.430696195413	2002
3	10360	1214.430696195413	2003
3	10360	1214.430696195413	2004
3	10384	1215.35411125025	2005
3	10384	1215.35411125025	2006
3	10389	1217.35411125025	2007
3	10389	1217.35411125025	2008
3	10394	1218.85411125025	2009
3	10394	1218.85411125025	2010
3	10397	1218.930696195413	2011
3	10397	1218.930696195413	2012
3	10397	1218.930696195413	2013
3	10397	1218.930696195413	2014
3	10397	1218.930696195413	2015
3	10416	1219.35411125025	2016
3	10416	1219.35411125025	2017
3	10427	1221.35411125025	2018
3	10427	1221.35411125025	2019
3	10432	1223.35411125025	2020
3	10432	1223.35411125025	2021
3	10433	1223.35411125025	2022
3	10433	1223.35411125025	2023
3	10438	1223.430696195413	2024
3	10438	1223.430696195413	2025
3	10438	1223.430696195413	2026
3	10438	1223.430696195413	2027
3	10438	1223.430696195413	2028
3	10465	1225.35411125025	2029
3	10465	1225.35411125025	2030
3	10470	1227.35411125025	2031
3	10470	1227.35411125025	2032
3	10475	1227.85411125025	2033
3	10475	1227.85411125025	2034
3	10478	1227.930696195413	2035
3	10478	1227.930696195413	2036
3	10478	1227.930696195413	2037
3	10478	1227.930696195413	2038
3	10478	1227.930696195413	2039
3	10501	1229.35411125025	2040
3	10501	1229.35411125025	2041
3	10508	1231.35411125025	2042
3	10508	1231.35411125025	2043
3	10513	1232.35411125025	2044
3	10513	1232.35411125025	2045
3	10516	1232.430696195413	2046
3	10516	1232.430696195413	2047
3	10516	1232.430696195413	2048
3	10516	1232.430696195413	2049
3	10516	1232.430696195413	2050
3	10538	1233.35411125025	2051
3	10538	1233.35411125025	2052
3	10546	1235.35411125025	2053
3	10546	1235.35411125025	2054
3	10551	1236.85411125025	2055
3	10551	1236.85411125025	2056
3	10554	1236.930696195413	2057
3	10554	1236.930696195413	2058
3	10554	1236.930696195413	2059
3	10554	1236.930696195413	2060
3	10554	1236.930696195413	2061
3	10572	1237.35411125025	2062
3	10572	1237.35411125025	2063
3	10582	1239.35411125025	2064
3	10582	1239.35411125025	2065
3	10589	1241.35411125025	2066
3	10589	1241.35411125025	2067
3	10590	1241.35411125025	2068
3	10590	1241.35411125025	2069
3	10595	1241.430696195413	2070
3	10595	1241.430696195413	2071
3	10595	1241.430696195413	2072
3	10595	1241.430696195413	2073
3	10595	1241.430696195413	2074
3	10619	1243.35411125025	2075
3	10619	1243.35411125025	2076
3	10627	1245.35411125025	2077
3	10627	1245.35411125025	2078
3	10632	1245.85411125025	2079
3	10632	1245.85411125025	2080
3	10635	1245.930696195413	2081
3	10635	1245.930696195413	2082
3	10635	1245.930696195413	2083
3	10635	1245.930696195413	2084
3	10635	1245.930696195413	2085
3	10657	1247.35411125025	2086
3	10657	1247.35411125025	2087
3	10663	1249.35411125025	2088
3	10663	1249.35411125025	2089
3	10670	1250.35411125025	2090
3	10670	1250.35411125025	2091
3	10673	1250.430696195413	2092
3	10673	1250.430696195413	2093
3	10673	1250.430696195413	2094
3	10673	1250.430696195413	2095
3	10673	1250.430696195413	2096
3	10695	1251.35411125025	2097
3	10695	1251.35411125025	2098
3	10700	1253.35411125025	2099
3	10700	1253.35411125025	2100
3	10706	1254.85411125025	2101
3	10706	1254.85411125025	2102
3	10709	1254.930696195413	2103
3	10709	1254.930696195413	2104
3	10709	1254.930696195413	2105
3	10709	1254.930696195413	2106
3	10709	1254.930696195413	2107
3	10729	1255.35411125025	2108
3	10729	1255.35411125025	2109
3	10738	1257.35411125025	2110
3	10738	1257.35411125025	2111
3	10744	1259.35411125025	2112
3	10744	1259.35411125025	2113
3	10745	1259.35411125025	2114
3	10745	1259.35411125025	2115
3	10750	1259.430696195413	2116
3	10750	1259.430696195413	2117
3	10750	1259.430696195413	2118
3	10750	1259.430696195413	2119
3	10750	1259.430696195413	2120
3	10776	1261.35411125025	2121
3	10776	1261.35411125025	2122
3	10781	1263.35411125025	2123
3	10781	1263.35411125025	2124
3	10786	1263.85411125025	2125
3	10786	1263.85411125025	2126
3	10789	1263.930696195413	2127
3	10789	1263.930696195413	2128
3	10789	1263.930696195413	2129
3	10789	1263.930696195413	2130
3	10789	1263.930696195413	2131
3	10814	1265.35411125025	2132
3	10814	1265.35411125025	2133
3	10819	1267.35411125025	2134
3	10819	1267.35411125025	2135
3	10824	1268.35411125025	2136
3	10824	1268.35411125025	2137
3	10827	1268.430696195413	2138
3	10827	1268.430696195413	2139
3	10827	1268.430696195413	2140
3	10827	1268.430696195413	2141
3	10827	1268.430696195413	2142
3	10850	1269.35411125025	2143
3	10850	1269.35411125025	2144
3	10857	1271.35411125025	2145
3	10857	1271.35411125025	2146
3	10862	1272.85411125025	2147
3	10862	1272.85411125025	2148
3	10865	1272.930696195413	2149
3	10865	1272.930696195413	2150
3	10865	1272.930696195413	2151
3	10865	1272.930696195413	2152
3	10865	1272.930696195413	2153
3	10883	1273.35411125025	2154
3	10883	1273.35411125025	2155
3	10895	1275.35411125025	2156
3	10895	1275.35411125025	2157
3	10900	1277.35411125025	2158
3	10900	1277.35411125025	2159
3	10901	1277.35411125025	2160
3	10901	1277.35411125025	2161
3	10906	1277.430696195413	2162
3	10906	1277.430696195413	2163
3	10906	1277.430696195413	2164
3	10906	1277.430696195413	2165
3	10906	1277.430696195413	2166
3	10931	1279.35411125025	2167
3	10931	1279.35411125025	2168
3	10938	1281.35411125025	2169
3	10938	1281.35411125025	2170
3	10943	1281.85411125025	2171
3	10943	1281.85411125025	2172
3	10946	1281.930696195413	2173
3	10946	1281.930696195413	2174
3	10946	1281.930696195413	2175
3	10946	1281.930696195413	2176
3	10946	1281.930696195413	2177
3	10968	1283.35411125025	2178
3	10968	1283.35411125025	2179
3	10976	1285.35411125025	2180
3	10976	1285.35411125025	2181
3	10981	1286.35411125025	2182
3	10981	1286.35411125025	2183
3	10984	1286.430696195413	2184
3	10984	1286.430696195413	2185
3	10984	1286.430696195413	2186
3	10984	1286.430696195413	2187
3	10984	1286.430696195413	2188
3	11006	1287.35411125025	2189
3	11006	1287.35411125025	2190
3	11012	1289.35411125025	2191
3	11012	1289.35411125025	2192
3	11019	1290.85411125025	2193
3	11019	1290.85411125025	2194
3	11022	1290.930696195413	2195
3	11022	1290.930696195413	2196
3	11022	1290.930696195413	2197
3	11022	1290.930696195413	2198
3	11022	1290.930696195413	2199
3	11040	1291.35411125025	2200
3	11040	1291.35411125025	2201
3	11049	1293.35411125025	2202
3	11049	1293.35411125025	2203
3	11057	1295.35411125025	2204
3	11057	1295.35411125025	2205
3	11058	1295.35411125025	2206
3	11058	1295.35411125025	2207
3	11063	1295.430696195413	2208
3	11063	1295.430696195413	2209
3	11063	1295.430696195413	2210
3	11063	1295.430696195413	2211
3	11063	1295.430696195413	2212
3	11087	1297.35411125025	2213
3	11087	1297.35411125025	2214
3	11093	1299.35411125025	2215
3	11093	1299.35411125025	2216
3	11098	1299.85411125025	2217
3	11098	1299.85411125025	2218
3	11101	1299.930696195413	2219
3	11101	1299.930696195413	2220
3	11101	1299.930696195413	2221
3	11101	1299.930696195413	2222
3	11101	1299.930696195413	2223
3	11125	1301.35411125025	2224
3	11125	1301.35411125025	2225
3	11130	1303.35411125025	2226
3	11130	1303.35411125025	2227
3	11136	1304.35411125025	2228
3	11136	1304.35411125025	2229
3	11139	1304.430696195413	2230
3	11139	1304.430696195413	2231
3	11139	1304.430696195413	2232
3	11139	1304.430696195413	2233
3	11139	1304.430696195413	2234
3	11163	1305.35411125025	2235
3	11163	1305.35411125025	2236
3	11168	1307.35411125025	2237
3	11168	1307.35411125025	2238
3	11173	1308.85411125025	2239
3	11173	1308.85411125025	2240
3	11176	1308.930696195413	2241
3	11176	1308.930696195413	2242
3	11176	1308.930696195413	2243
3	11176	1308.930696195413	2244
3	11176	1308.930696195413	2245
3	11195	1309.35411125025	2246
3	11195	1309.35411125025	2247
3	11206	1311.35411125025	2248
3	11206	1311.35411125025	2249
3	11211	1313.35411125025	2250
3	11211	1313.35411125025	2251
3	11212	1313.35411125025	2252
3	11212	1313.35411125025	2253
3	11217	1313.430696195413	2254
3	11217	1313.430696195413	2255
3	11217	1313.430696195413	2256
3	11217	1313.430696195413	2257
3	11217	1313.430696195413	2258
3	11244	1315.35411125025	2259
3	11244	1315.35411125025	2260
3	11249	1317.35411125025	2261
3	11249	1317.35411125025	2262
3	11254	1317.85411125025	2263
3	11254	1317.85411125025	2264
3	11257	1317.930696195413	2265
3	11257	1317.930696195413	2266
3	11257	1317.930696195413	2267
3	11257	1317.930696195413	2268
3	11257	1317.930696195413	2269
3	11280	1319.35411125025	2270
3	11280	1319.35411125025	2271
3	11287	1321.35411125025	2272
3	11287	1321.35411125025	2273
3	11292	1322.35411125025	2274
3	11292	1322.35411125025	2275
3	11295	1322.430696195413	2276
3	11295	1322.430696195413	2277
3	11295	1322.430696195413	2278
3	11295	1322.430696195413	2279
3	11295	1322.430696195413	2280
3	11317	1323.35411125025	2281
3	11317	1323.35411125025	2282
3	11325	1325.35411125025	2283
3	11325	1325.35411125025	2284
3	11330	1326.85411125025	2285
3	11330	1326.85411125025	2286
3	11333	1326.930696195413	2287
3	11333	1326.930696195413	2288
3	11333	1326.930696195413	2289
3	11333	1326.930696195413	2290
3	11333	1326.930696195413	2291
3	11351	1327.35411125025	2292
3	11351	1327.35411125025	2293
3	11361	1329.35411125025	2294
3	11361	1329.35411125025	2295
3	11368	1331.35411125025	2296
3	11368	1331.35411125025	2297
3	11369	1331.35411125025	2298
3	11369	1331.35411125025	2299
3	11374	1331.430696195413	2300
3	11374	1331.430696195413	2301
3	11374	1331.430696195413	2302
3	11374	1331.430696195413	2303
3	11374	1331.430696195413	2304
3	11398	1333.35411125025	2305
3	11398	1333.35411125025	2306
3	11406	1335.35411125025	2307
3	11406	1335.35411125025	2308
3	11411	1335.85411125025	2309
3	11411	1335.85411125025	2310
3	11414	1335.930696195413	2311
3	11414	1335.930696195413	2312
3	11414	1335.930696195413	2313
3	11414	1335.930696195413	2314
3	11414	1335.930696195413	2315
3	11436	1337.35411125025	2316
3	11436	1337.35411125025	2317
3	11442	1339.35411125025	2318
3	11442	1339.35411125025	2319
3	11449	1340.35411125025	2320
3	11449	1340.35411125025	2321
3	11452	1340.430696195413	2322
3	11452	1340.430696195413	2323
3	11452	1340.430696195413	2324
3	11452	1340.430696195413	2325
3	11452	1340.430696195413	2326
3	11474	1341.35411125025	2327
3	11474	1341.35411125025	2328
3	11479	1343.35411125025	2329
3	11479	1343.35411125025	2330
3	11485	1344.85411125025	2331
3	11485	1344.85411125025	2332
3	11488	1344.930696195413	2333
3	11488	1344.930696195413	2334
3	11488	1344.930696195413	2335
3	11488	1344.930696195413	2336
3	11488	1344.930696195413	2337
3	11508	1345.35411125025	2338
3	11508	1345.35411125025	2339
3	11517	1347.35411125025	2340
3	11517	1347.35411125025	2341
3	11523	1349.35411125025	2342
3	11523	1349.35411125025	2343
3	11524	1349.35411125025	2344
3	11524	1349.35411125025	2345
3	11529	1349.430696195413	2346
3	11529	1349.430696195413	2347
3	11529	1349.430696195413	2348
3	11529	1349.430696195413	2349
3	11529	1349.430696195413	2350
3	11555	1351.35411125025	2351
3	11555	1351.35411125025	2352
3	11560	1353.35411125025	2353
3	11560	1353.35411125025	2354
3	11565	1353.85411125025	2355
3	11565	1353.85411125025	2356
3	11568	1353.930696195413	2357
3	11568	1353.930696195413	2358
3	11568	1353.930696195413	2359
3	11568	1353.930696195413	2360
3	11568	1353.930696195413	2361
3	11593	1355.35411125025	2362
3	11593	1355.35411125025	2363
3	11598	1357.35411125025	2364
3	11598	1357.35411125025	2365
3	11603	1358.35411125025	2366
3	11603	1358.35411125025	2367
3	11606	1358.430696195413	2368
3	11606	1358.430696195413	2369
3	11606	1358.430696195413	2370
3	11606	1358.430696195413	2371
3	11606	1358.430696195413	2372
3	11629	1359.35411125025	2373
3	11629	1359.35411125025	2374
3	11636	1361.35411125025	2375
3	11636	1361.35411125025	2376
3	11641	1362.85411125025	2377
3	11641	1362.85411125025	2378
3	11644	1362.930696195413	2379
3	11644	1362.930696195413	2380
3	11644	1362.930696195413	2381
3	11644	1362.930696195413	2382
3	11644	1362.930696195413	2383
3	11662	1363.35411125025	2384
3	11662	1363.35411125025	2385
3	11674	1365.35411125025	2386
3	11674	1365.35411125025	2387
3	11679	1367.35411125025	2388
3	11679	1367.35411125025	2389
3	11680	1367.35411125025	2390
3	11680	1367.35411125025	2391
3	11685	1367.430696195413	2392
3	11685	1367.430696195413	2393
3	11685	1367.430696195413	2394
3	11685	1367.430696195413	2395
3	11685	1367.430696195413	2396
3	11710	1369.35411125025	2397
3	11710	1369.35411125025	2398
3	11717	1371.35411125025	2399
3	11717	1371.35411125025	2400
3	11722	1371.85411125025	2401
3	11722	1371.85411125025	2402
3	11725	1371.930696195413	2403
3	11725	1371.930696195413	2404
3	11725	1371.930696195413	2405
3	11725	1371.930696195413	2406
3	11725	1371.930696195413	2407
3	11747	1373.35411125025	2408
3	11747	1373.35411125025	2409
3	11755	1375.35411125025	2410
3	11755	1375.35411125025	2411
3	11760	1376.35411125025	2412
3	11760	1376.35411125025	2413
3	11763	1376.430696195413	2414
3	11763	1376.430696195413	2415
3	11763	1376.430696195413	2416
3	11763	1376.430696195413	2417
3	11763	1376.430696195413	2418
3	11785	1377.35411125025	2419
3	11785	1377.35411125025	2420
3	11791	1379.35411125025	2421
3	11791	1379.35411125025	2422
3	11798	1380.85411125025	2423
3	11798	1380.85411125025	2424
3	11801	1380.930696195413	2425
3	11801	1380.930696195413	2426
3	11801	1380.930696195413	2427
3	11801	1380.930696195413	2428
3	11801	1380.930696195413	2429
3	11819	1381.35411125025	2430
3	11819	1381.35411125025	2431
3	11828	1383.35411125025	2432
3	11828	1383.35411125025	2433
3	11836	1385.35411125025	2434
3	11836	1385.35411125025	2435
3	11837	1385.35411125025	2436
3	11837	1385.35411125025	2437
3	11842	1385.430696195413	2438
3	11842	1385.430696195413	2439
3	11842	1385.430696195413	2440
3	11842	1385.430696195413	2441
3	11842	1385.430696195413	2442
3	11866	1387.35411125025	2443
3	11866	1387.35411125025	2444
3	11872	1389.35411125025	2445
3	11872	1389.35411125025	2446
3	11877	1389.85411125025	2447
3	11877	1389.85411125025	2448
3	11880	1389.930696195413	2449
3	11880	1389.930696195413	2450
3	11880	1389.930696195413	2451
3	11880	1389.930696195413	2452
3	11880	1389.930696195413	2453
3	11904	1391.35411125025	2454
3	11904	1391.35411125025	2455
3	11909	1393.35411125025	2456
3	11909	1393.35411125025	2457
3	11915	1394.35411125025	2458
3	11915	1394.35411125025	2459
3	11918	1394.430696195413	2460
3	11918	1394.430696195413	2461
3	11918	1394.430696195413	2462
3	11918	1394.430696195413	2463
3	11918	1394.430696195413	2464
3	11942	1395.35411125025	2465
3	11942	1395.35411125025	2466
3	11947	1397.35411125025	2467
3	11947	1397.35411125025	2468
3	11952	1398.85411125025	2469
3	11952	1398.85411125025	2470
3	11955	1398.930696195413	2471
3	11955	1398.930696195413	2472
3	11955	1398.930696195413	2473
3	11955	1398.930696195413	2474
3	11955	1398.930696195413	2475
3	11974	1399.35411125025	2476
3	11974	1399.35411125025	2477
3	11985	1401.35411125025	2478
3	11985	1401.35411125025	2479
3	11990	1403.35411125025	2480
3	11990	1403.35411125025	2481
3	11991	1403.35411125025	2482
3	11991	1403.35411125025	2483
3	11996	1403.430696195413	2484
3	11996	1403.430696195413	2485
3	11996	1403.430696195413	2486
3	11996	1403.430696195413	2487
3	11996	1403.430696195413	2488
3	12023	1405.35411125025	2489
3	12023	1405.35411125025	2490
3	12028	1407.35411125025	2491
3	12028	1407.35411125025	2492
3	12033	1407.85411125025	2493
3	12033	1407.85411125025	2494
3	12036	1407.930696195413	2495
3	12036	1407.930696195413	2496
3	12036	1407.930696195413	2497
3	12036	1407.930696195413	2498
3	12036	1407.930696195413	2499
3	12059	1409.35411125025	2500
3	12059	1409.35411125025	2501
3	12066	1411.35411125025	2502
3	12066	1411.35411125025	2503
3	12071	1412.35411125025	2504
3	12071	1412.35411125025	2505
3	12074	1412.430696195413	2506
3	12074	1412.430696195413	2507
3	12074	1412.430696195413	2508
3	12074	1412.430696195413	2509
3	12074	1412.430696195413	2510
3	12096	1413.35411125025	2511
3	12096	1413.35411125025	2512
3	12104	1415.35411125025	2513
3	12104	1415.35411125025	2514
3	12109	1416.85411125025	2515
3	12109	1416.85411125025	2516
3	12112	1416.930696195413	2517
3	12112	1416.930696195413	2518
3	12112	1416.930696195413	2519
3	12112	1416.930696195413	2520
3	12112	1416.930696195413	2521
3	12130	1417.35411125025	2522
3	12130	1417.35411125025	2523
3	12140	1419.35411125025	2524
3	12140	1419.35411125025	2525
3	12147	1421.35411125025	2526
3	12147	1421.35411125025	2527
3	12148	1421.35411125025	2528
3	12148	1421.35411125025	2529
3	12153	1421.430696195413	2530
3	12153	1421.430696195413	2531
3	12153	1421.430696195413	2532
3	12153	1421.430696195413	2533
3	12153	1421.430696195413	2534
3	12177	1423.35411125025	2535
3	12177	1423.35411125025	2536
3	12185	1425.35411125025	2537
3	12185	1425.35411125025	2538
3	12190	1425.85411125025	2539
3	12190	1425.85411125025	2540
3	12193	1425.930696195413	2541
3	12193	1425.930696195413	2542
3	12193	1425.930696195413	2543
3	12193	1425.930696195413	2544
3	12193	1425.930696195413	2545
3	12215	1427.35411125025	2546
3	12215	1427.35411125025	2547
3	12221	1429.35411125025	2548
3	12221	1429.35411125025	2549
3	12228	1430.35411125025	2550
3	12228	1430.35411125025	2551
3	12231	1430.430696195413	2552
3	12231	1430.430696195413	2553
3	12231	1430.430696195413	2554
3	12231	1430.430696195413	2555
3	12231	1430.430696195413	2556
3	12253	1431.35411125025	2557
3	12253	1431.35411125025	2558
3	12258	1433.35411125025	2559
[...]
24	5683	664.844695400324	98
24	5689	666.844695400324	99
24	5694	667.844695400324	100
24	5719	668.844695400324	101
24	5726	670.844695400324	102
24	5732	672.344695400324	103
24	5753	672.844695400324	104
24	5764	674.844695400324	105
24	5771	676.844695400324	106
24	5772	676.844695400324	107
24	5800	678.844695400324	108
24	5807	680.844695400324	109
24	6246	738.267043100486	110
24	6251	738.767043100486	111
24	6274	740.267043100486	112
24	6290	742.267043100486	113
24	6297	743.267043100486	114
24	6322	744.267043100486	115
24	6329	746.267043100486	116
24	6335	747.767043100486	117
24	6356	748.267043100486	118
24	6367	750.267043100486	119
24	6374	752.267043100486	120
24	6375	752.267043100486	121
24	6403	754.267043100486	122
24	6410	756.267043100486	123
24	6415	756.767043100486	124
24	6441	758.267043100486	125
24	6448	760.267043100486	126
24	6453	761.267043100486	127
24	6479	762.267043100486	128
24	6484	764.267043100486	129
24	6491	765.767043100486	130
24	6512	766.267043100486	131
24	6522	768.267043100486	132
24	6530	770.267043100486	133
24	6531	770.267043100486	134
24	6560	772.267043100486	135
24	6565	774.267043100486	136
24	6570	774.767043100486	137
24	6597	776.267043100486	138
24	6603	778.267043100486	139
24	6608	779.267043100486	140
24	6635	780.267043100486	141
24	6641	782.267043100486	142
24	6646	783.767043100486	143
24	6667	784.267043100486	144
24	6678	786.267043100486	145
24	6685	788.267043100486	146
24	6686	788.267043100486	147
24	6716	790.267043100486	148
24	6722	792.267043100486	149
24	6727	792.767043100486	150
24	6752	794.267043100486	151
24	6759	796.267043100486	152
24	6765	797.267043100486	153
24	6790	798.267043100486	154
24	6797	800.267043100486	155
24	6802	801.767043100486	156
24	6824	802.267043100486	157
24	6833	804.267043100486	158
24	6841	806.267043100486	159
24	6842	806.267043100486	160
24	7314	860.267043100486	161
24	7315	860.267043100486	162
24	7343	862.267043100486	163
24	7349	864.267043100486	164
24	7354	864.767043100486	165
24	7381	866.267043100486	166
24	7386	868.267043100486	167
24	7392	869.267043100486	168
24	7419	870.267043100486	169
24	7424	872.267043100486	170
24	7429	873.767043100486	171
24	7451	874.267043100486	172
24	7462	876.267043100486	173
24	7468	878.267043100486	174
24	7469	878.267043100486	175
24	7500	880.267043100486	176
24	7505	882.267043100486	177
24	7510	882.767043100486	178
24	7536	884.267043100486	179
24	7543	886.267043100486	180
24	7548	887.267043100486	181
24	7573	888.267043100486	182
24	7581	890.267043100486	183
24	7586	891.767043100486	184
24	7607	892.267043100486	185
24	7617	894.267043100486	186
24	7625	896.267043100486	187
24	7626	896.267043100486	188
24	7654	898.267043100486	189
24	7662	900.267043100486	190
24	7667	900.767043100486	191
24	7692	902.267043100486	192
24	7698	904.267043100486	193
24	7705	905.267043100486	194
24	7730	906.267043100486	195
24	7735	908.267043100486	196
24	7741	909.767043100486	197
24	7764	910.267043100486	198
24	7773	912.267043100486	199
24	7780	914.267043100486	200
24	7781	914.267043100486	201
24	7811	916.267043100486	202
24	7816	918.267043100486	203
24	7821	918.767043100486	204
24	7849	920.267043100486	205
24	7854	922.267043100486	206
24	7859	923.267043100486	207
24	7885	924.267043100486	208
24	7892	926.267043100486	209
24	7897	927.767043100486	210
24	7918	928.267043100486	211
24	7930	930.267043100486	212
24	7936	932.267043100486	213
24	7937	932.267043100486	214
24	7966	934.267043100486	215
24	7973	936.267043100486	216
24	7978	936.767043100486	217
24	8003	938.267043100486	218
24	8011	940.267043100486	219
24	8016	941.267043100486	220
24	8041	942.267043100486	221
24	8047	944.267043100486	222
24	8054	945.767043100486	223
24	8075	946.267043100486	224
24	8084	948.267043100486	225
24	8093	950.267043100486	226
24	8094	950.267043100486	227
24	8122	952.267043100486	228
24	8128	954.267043100486	229
24	8133	954.767043100486	230
24	8160	956.267043100486	231
24	8165	958.267043100486	232
24	8171	959.267043100486	233
24	8198	960.267043100486	234
24	8203	962.267043100486	235
24	8208	963.767043100486	236
24	8230	964.267043100486	237
24	8241	966.267043100486	238
24	8247	968.267043100486	239
24	8248	968.267043100486	240
24	8279	970.267043100486	241
24	8284	972.267043100486	242
24	8289	972.767043100486	243
24	8315	974.267043100486	244
24	8322	976.267043100486	245
24	8327	977.267043100486	246
24	8352	978.267043100486	247
24	8360	980.267043100486	248
24	8365	981.767043100486	249
24	8386	982.267043100486	250
24	8396	984.267043100486	251
24	8404	986.267043100486	252
24	8405	986.267043100486	253
24	8433	988.267043100486	254
24	8441	990.267043100486	255
24	8446	990.767043100486	256
24	8471	992.267043100486	257
24	8477	994.267043100486	258
24	8484	995.267043100486	259
24	8509	996.267043100486	260
24	8514	998.267043100486	261
24	8520	999.767043100486	262
24	8543	1000.267043100486	263
24	8552	1002.267043100486	264
24	8559	1004.267043100486	265
24	8560	1004.267043100486	266
24	8590	1006.267043100486	267
24	8595	1008.267043100486	268
24	8600	1008.767043100486	269
24	8628	1010.267043100486	270
24	8633	1012.267043100486	271
24	8638	1013.267043100486	272
24	8664	1014.267043100486	273
24	8671	1016.267043100486	274
24	8676	1017.767043100486	275
24	8697	1018.267043100486	276
24	8709	1020.267043100486	277
24	8715	1022.267043100486	278
24	8716	1022.267043100486	279
24	8745	1024.267043100486	280
24	8752	1026.267043100486	281
24	8757	1026.767043100486	282
24	8782	1028.267043100486	283
24	8790	1030.267043100486	284
24	8795	1031.267043100486	285
24	8820	1032.267043100486	286
24	8826	1034.267043100486	287
24	8833	1035.767043100486	288
24	8854	1036.267043100486	289
24	8863	1038.267043100486	290
24	19588	2353.129104711907	291
24	19597	2353.249912864182	292
24	19599	2353.370721016457	293
24	19608	2353.491529168732	294
24	19614	2353.612337321007	295
24	19615	2353.629104711907	296
24	19627	2355.629104711907	297
24	19635	2357.629104711907	298
24	19636	2357.629104711907	299
24	19665	2359.629104711907	300
24	19670	2361.629104711907	301
24	19677	2362.129104711907	302
24	19702	2363.629104711907	303
24	19708	2365.629104711907	304
24	19713	2366.629104711907	305
24	19740	2367.629104711907	306
24	19746	2369.629104711907	307
24	19751	2371.129104711907	308
24	19772	2371.629104711907	309
24	19783	2373.629104711907	310
24	19790	2375.629104711907	311
24	19791	2375.629104711907	312
24	19821	2377.629104711907	313
24	19827	2379.629104711907	314
24	19832	2380.129104711907	315
24	19857	2381.629104711907	316
24	19864	2383.629104711907	317
24	19870	2384.629104711907	318
24	19895	2385.629104711907	319
24	19902	2387.629104711907	320
24	19908	2389.129104711907	321
24	19929	2389.629104711907	322
24	19938	2391.629104711907	323
24	19946	2393.629104711907	324
24	19947	2393.629104711907	325
24	19976	2395.629104711907	326
24	19983	2397.629104711907	327
24	19988	2398.129104711907	328
24	20014	2399.629104711907	329
24	20019	2401.629104711907	330
24	20026	2402.629104711907	331
24	20051	2403.629104711907	332
24	20057	2405.629104711907	333
24	20064	2407.129104711907	334
24	20085	2407.629104711907	335
24	20095	2409.629104711907	336
24	20101	2411.629104711907	337
24	20102	2411.629104711907	338
24	20132	2413.629104711907	339
24	20138	2415.629104711907	340
24	20143	2416.129104711907	341
24	20214	2423.629104711907	342
24	20220	2425.129104711907	343
24	20241	2425.629104711907	344
24	20251	2427.629104711907	345
24	20259	2429.629104711907	346
24	20260	2429.629104711907	347
24	20288	2431.629104711907	348
24	20295	2433.629104711907	349
24	20301	2434.129104711907	350
24	20326	2435.629104711907	351
24	20332	2437.629104711907	352
24	20338	2438.629104711907	353
24	20364	2439.629104711907	354
24	20369	2441.629104711907	355
24	20376	2443.129104711907	356
24	20397	2443.629104711907	357
24	20407	2445.629104711907	358
24	20414	2447.629104711907	359
24	20415	2447.629104711907	360
24	20445	2449.629104711907	361
24	20450	2451.629104711907	362
24	20456	2452.129104711907	363
24	20482	2453.629104711907	364
24	20488	2455.629104711907	365
24	20493	2456.629104711907	366
24	20519	2457.629104711907	367
24	20526	2459.629104711907	368
24	20531	2461.129104711907	369
24	20552	2461.629104711907	370
24	20564	2463.629104711907	371
24	20572	2465.629104711907	372
24	20573	2465.629104711907	373
24	20601	2467.629104711907	374
24	20608	2469.629104711907	375
24	20613	2470.129104711907	376
24	20638	2471.629104711907	377
24	20645	2473.629104711907	378
24	20651	2474.629104711907	379
24	20676	2475.629104711907	380
24	20681	2477.629104711907	381
24	20689	2479.129104711907	382
24	20710	2479.629104711907	383
24	20719	2481.629104711907	384
24	20727	2483.629104711907	385
24	20728	2483.629104711907	386
24	20757	2485.629104711907	387
24	20762	2487.629104711907	388
24	20769	2488.129104711907	389
24	20795	2489.629104711907	390
24	20800	2491.629104711907	391
24	20805	2492.629104711907	392
24	20832	2493.629104711907	393
24	20838	2495.629104711907	394
24	20843	2497.129104711907	395
24	20864	2497.629104711907	396
24	20876	2499.629104711907	397
24	20882	2501.629104711907	398
24	20883	2501.629104711907	399
24	20913	2503.629104711907	400
24	20919	2505.629104711907	401
24	20924	2506.129104711907	402
24	20949	2507.629104711907	403
24	20957	2509.629104711907	404
24	20962	2510.629104711907	405
24	20987	2511.629104711907	406
24	20994	2513.629104711907	407
24	21000	2515.129104711907	408
24	21021	2515.629104711907	409
24	21030	2517.629104711907	410
24	21039	2519.629104711907	411
24	21040	2519.629104711907	412
24	21068	2521.629104711907	413
24	21075	2523.629104711907	414
24	21081	2524.129104711907	415
24	21106	2525.629104711907	416
24	21111	2527.629104711907	417
24	21118	2528.629104711907	418
24	21144	2529.629104711907	419
24	21149	2531.629104711907	420
24	21156	2533.129104711907	421
24	21177	2533.629104711907	422
24	21187	2535.629104711907	423
24	21193	2537.629104711907	424
24	21194	2537.629104711907	425
24	21225	2539.629104711907	426
24	21230	2541.629104711907	427
24	21235	2542.129104711907	428
24	21262	2543.629104711907	429
24	21268	2545.629104711907	430
24	21273	2546.629104711907	431
24	21298	2547.629104711907	432
24	21306	2549.629104711907	433
24	21311	2551.129104711907	434
24	21332	2551.629104711907	435
24	21343	2553.629104711907	436
24	21350	2555.629104711907	437
24	21351	2555.629104711907	438
24	21379	2557.629104711907	439
24	21387	2559.629104711907	440
24	21392	2560.129104711907	441
24	21417	2561.629104711907	442
24	21424	2563.629104711907	443
24	21430	2564.629104711907	444
24	21455	2565.629104711907	445
24	21460	2567.629104711907	446
24	21468	2569.129104711907	447
24	21489	2569.629104711907	448
24	21498	2571.629104711907	449
24	21506	2573.629104711907	450
24	21507	2573.629104711907	451
24	21536	2575.629104711907	452
24	21541	2577.629104711907	453
24	21548	2578.129104711907	454
24	21574	2579.629104711907	455
24	21579	2581.629104711907	456
24	21584	2582.629104711907	457
24	21611	2583.629104711907	458
24	21617	2585.629104711907	459
24	21622	2587.129104711907	460
24	21643	2587.629104711907	461
24	21655	2589.629104711907	462
24	21661	2591.629104711907	463
24	21662	2591.629104711907	464
24	21692	2593.629104711907	465
24	21698	2595.629104711907	466
24	21703	2596.129104711907	467
24	21728	2597.629104711907	468
24	21736	2599.629104711907	469
24	21741	2600.629104711907	470
24	21766	2601.629104711907	471
24	21773	2603.629104711907	472
24	21779	2605.129104711907	473
24	21800	2605.629104711907	474
24	21809	2607.629104711907	475
24	21818	2609.629104711907	476
24	21819	2609.629104711907	477
24	21847	2611.629104711907	478
24	21854	2613.629104711907	479
24	21860	2614.129104711907	480
24	21885	2615.629104711907	481
24	21890	2617.629104711907	482
24	21897	2618.629104711907	483
24	21923	2619.629104711907	484
24	21928	2621.629104711907	485
24	21935	2623.129104711907	486
24	21956	2623.629104711907	487
24	21966	2625.629104711907	488
24	21972	2627.629104711907	489
24	21973	2627.629104711907	490
24	22004	2629.629104711907	491
24	22009	2631.629104711907	492
24	22014	2632.129104711907	493
24	22041	2633.629104711907	494
24	22047	2635.629104711907	495
24	22052	2636.629104711907	496
24	22077	2637.629104711907	497
24	22085	2639.629104711907	498
24	22090	2641.129104711907	499
24	22111	2641.629104711907	500
24	22122	2643.629104711907	501
24	22129	2645.629104711907	502
24	22130	2645.629104711907	503
24	22158	2647.629104711907	504
24	22166	2649.629104711907	505
24	22171	2650.129104711907	506
24	22196	2651.629104711907	507
24	22203	2653.629104711907	508
24	22209	2654.629104711907	509
24	22234	2655.629104711907	510
24	22239	2657.629104711907	511
24	22247	2659.129104711907	512
24	22268	2659.629104711907	513
24	22277	2661.629104711907	514
24	22285	2663.629104711907	515
24	22286	2663.629104711907	516
24	22315	2665.629104711907	517
24	22320	2667.629104711907	518
24	22327	2668.129104711907	519
24	22353	2669.629104711907	520
24	22358	2671.629104711907	521
24	22363	2672.629104711907	522
24	22390	2673.629104711907	523
24	22396	2675.629104711907	524
24	22401	2677.129104711907	525
24	22422	2677.629104711907	526
24	22434	2679.629104711907	527
24	22440	2681.629104711907	528
24	22441	2681.629104711907	529
24	22471	2683.629104711907	530
24	22477	2685.629104711907	531
24	22482	2686.129104711907	532
24	22507	2687.629104711907	533
24	22515	2689.629104711907	534
24	22520	2690.629104711907	535
24	22545	2691.629104711907	536
24	22552	2693.629104711907	537
24	22558	2695.129104711907	538
24	22579	2695.629104711907	539
24	22588	2697.629104711907	540
24	22597	2699.629104711907	541
24	22598	2699.629104711907	542
24	22626	2701.629104711907	543
24	22633	2703.629104711907	544
24	22639	2704.129104711907	545
24	22664	2705.629104711907	546
24	22669	2707.629104711907	547
24	22676	2708.629104711907	548
24	22702	2709.629104711907	549
24	22707	2711.629104711907	550
24	22714	2713.129104711907	551
24	22735	2713.629104711907	552
24	22745	2715.629104711907	553
24	22751	2717.629104711907	554
24	22752	2717.629104711907	555
24	22783	2719.629104711907	556
24	22788	2721.629104711907	557
24	22793	2722.129104711907	558
24	22820	2723.629104711907	559
24	22826	2725.629104711907	560
24	22831	2726.629104711907	561
24	22856	2727.629104711907	562
24	22864	2729.629104711907	563
24	22869	2731.129104711907	564
24	22890	2731.629104711907	565
24	22901	2733.629104711907	566
24	22908	2735.629104711907	567
24	22909	2735.629104711907	568
24	22937	2737.629104711907	569
24	22945	2739.629104711907	570
24	22950	2740.129104711907	571
24	22975	2741.629104711907	572
24	22982	2743.629104711907	573
24	22988	2744.629104711907	574
24	23013	2745.629104711907	575
24	23018	2747.629104711907	576
24	23026	2749.129104711907	577
24	23047	2749.629104711907	578
24	23056	2751.629104711907	579
24	23064	2753.629104711907	580
24	23065	2753.629104711907	581
24	23094	2755.629104711907	582
24	23099	2757.629104711907	583
24	23106	2758.129104711907	584
24	23132	2759.629104711907	585
24	23137	2761.629104711907	586
24	23142	2762.629104711907	587
24	23169	2763.629104711907	588
24	23175	2765.629104711907	589
24	23180	2767.129104711907	590
24	23201	2767.629104711907	591
24	23213	2769.629104711907	592
24	23219	2771.629104711907	593
24	23220	2771.629104711907	594
24	23250	2773.629104711907	595
24	23256	2775.629104711907	596
24	23261	2776.129104711907	597
24	23286	2777.629104711907	598
24	23294	2779.629104711907	599
24	23299	2780.629104711907	600
24	23324	2781.629104711907	601
24	23331	2783.629104711907	602
24	23337	2785.129104711907	603
24	23358	2785.629104711907	604
24	23367	2787.629104711907	605
24	23376	2789.629104711907	606
24	23377	2789.629104711907	607
24	23405	2791.629104711907	608
24	23412	2793.629104711907	609
24	23418	2794.129104711907	610
24	23443	2795.629104711907	611
24	23448	2797.629104711907	612
24	23455	2798.629104711907	613
24	23481	2799.629104711907	614
24	23486	2801.629104711907	615
24	23493	2803.129104711907	616
24	23514	2803.629104711907	617
24	23524	2805.629104711907	618
24	23530	2807.629104711907	619
24	23531	2807.629104711907	620
24	23562	2809.629104711907	621
24	23567	2811.629104711907	622
24	23572	2812.129104711907	623
24	23599	2813.629104711907	624
24	23605	2815.629104711907	625
24	23610	2816.629104711907	626
24	23635	2817.629104711907	627
24	23643	2819.629104711907	628
24	23648	2821.129104711907	629
24	23669	2821.629104711907	630
24	23680	2823.629104711907	631
24	23687	2825.629104711907	632
24	23688	2825.629104711907	633
24	23716	2827.629104711907	634
24	23724	2829.629104711907	635
24	23729	2830.129104711907	636
24	23754	2831.629104711907	637
24	23761	2833.629104711907	638
24	23767	2834.629104711907	639
24	23792	2835.629104711907	640
24	23797	2837.629104711907	641
24	23805	2839.129104711907	642
24	23826	2839.629104711907	643
24	23835	2841.629104711907	644
24	23843	2843.629104711907	645
24	23844	2843.629104711907	646
24	23873	2845.629104711907	647
24	23878	2847.629104711907	648
24	23885	2848.129104711907	649
24	23911	2849.629104711907	650
24	23916	2851.629104711907	651
24	23921	2852.629104711907	652
24	23948	2853.629104711907	653
24	23954	2855.629104711907	654
24	23959	2857.129104711907	655
24	23980	2857.629104711907	656
24	23992	2859.629104711907	657
24	23998	2861.629104711907	658
24	23999	2861.629104711907	659
24	24029	2863.629104711907	660
24	24035	2865.629104711907	661
24	24040	2866.129104711907	662
24	24065	2867.629104711907	663
24	24073	2869.629104711907	664
24	24078	2870.629104711907	665
24	24103	2871.629104711907	666
24	24110	2873.629104711907	667
24	24116	2875.129104711907	668
24	24137	2875.629104711907	669
24	24146	2877.629104711907	670
24	24155	2879.629104711907	671
24	24156	2879.629104711907	672
24	24184	2881.629104711907	673
24	24191	2883.629104711907	674
24	24197	2884.129104711907	675
24	24222	2885.629104711907	676
24	24227	2887.629104711907	677
24	24234	2888.629104711907	678
24	24260	2889.629104711907	679
24	24265	2891.629104711907	680
24	24272	2893.129104711907	681
24	24293	2893.629104711907	682
24	24303	2895.629104711907	683
24	24309	2897.629104711907	684
24	24310	2897.629104711907	685
24	24424	2909.629104711907	686
24	24429	2911.129104711907	687
24	24450	2911.629104711907	688
24	24460	2913.629104711907	689
24	24468	2915.629104711907	690
24	24469	2915.629104711907	691
24	24497	2917.629104711907	692
24	24505	2919.629104711907	693
24	24510	2920.129104711907	694
24	24535	2921.629104711907	695
24	24541	2923.629104711907	696
24	24548	2924.629104711907	697
24	24573	2925.629104711907	698
24	24578	2927.629104711907	699
24	24586	2929.129104711907	700
24	24607	2929.629104711907	701
24	24616	2931.629104711907	702
24	24623	2933.629104711907	703
24	24624	2933.629104711907	704
24	24654	2935.629104711907	705
24	24659	2937.629104711907	706
24	24665	2938.129104711907	707
24	24692	2939.629104711907	708
24	24697	2941.629104711907	709
24	24702	2942.629104711907	710
24	24728	2943.629104711907	711
24	24735	2945.629104711907	712
24	24740	2947.129104711907	713
24	24761	2947.629104711907	714
24	24773	2949.629104711907	715
24	24779	2951.629104711907	716
24	24780	2951.629104711907	717
24	24809	2953.629104711907	718
24	24816	2955.629104711907	719
24	24821	2956.129104711907	720
24	24846	2957.629104711907	721
24	24854	2959.629104711907	722
24	24859	2960.629104711907	723
24	24884	2961.629104711907	724
24	24890	2963.629104711907	725
24	24897	2965.129104711907	726
24	24918	2965.629104711907	727
24	24927	2967.629104711907	728
24	24936	2969.629104711907	729
24	24937	2969.629104711907	730
24	24965	2971.629104711907	731
24	24971	2973.629104711907	732
24	24978	2974.129104711907	733
24	25003	2975.629104711907	734
24	25008	2977.629104711907	735
24	25014	2978.629104711907	736
24	25041	2979.629104711907	737
24	25046	2981.629104711907	738
24	25052	2983.129104711907	739
24	25073	2983.629104711907	740
24	25084	2985.629104711907	741
24	25090	2987.629104711907	742
24	25091	2987.629104711907	743
24	25122	2989.629104711907	744
24	25127	2991.629104711907	745
24	25132	2992.129104711907	746
24	25158	2993.629104711907	747
24	25165	2995.629104711907	748
24	25170	2996.629104711907	749
24	25195	2997.629104711907	750
24	25203	2999.629104711907	751
25	16437	1920.187966052112	1
25	16437	1920.187966052112	2

