file 50657 1647425564                                           
version 2
run StaticNetwork-0-20220316-11:12:40-9004
attr configname StaticNetwork
attr datetime 20220316-11:12:40
attr experiment StaticNetwork
attr inifile omnetpp.ini
attr iterationvars "$0=1, $1=7, $2=0"
attr iterationvarsf 1,7,0-
attr measurement "$0=1, $1=7, $2=0"
attr network RAFT_Network
attr processid 9004
attr repetition 0
attr replication #0
attr resultdir results
attr runnumber 0
attr seedset 0
param **.failureProbability 1
param **.recoveryProbability 7
param **.messageLossProbability 0
param **.clients_number 5
param **.cloud.propDelay 0.1s

vector 0 RAFT_Network.server[0] serverState ETV
vector 1 RAFT_Network.server[1] serverState ETV
vector 2 RAFT_Network.server[2] serverState ETV
vector 3 RAFT_Network.server[3] serverState ETV
vector 4 RAFT_Network.server[4] serverState ETV
0	829 9 0 0 0 0 1 0 0 0 0
1	838 9 0 0 0 0 1 0 0 0 0
2	847 9 0 0 0 0 1 0 0 0 0
3	856 9 0 0 0 0 1 0 0 0 0
4	865 9 0 0 0 0 1 0 0 0 0
vector 5 RAFT_Network.server[0] totMsgSent ETV
vector 6 RAFT_Network.server[0] totRequestVoteMsgSent ETV
vector 7 RAFT_Network.server[4] totMsgReceived ETV
vector 8 RAFT_Network.server[4] totMsgSent ETV
vector 9 RAFT_Network.server[4] totReplyToClientRequestMsgSent ETV
vector 10 RAFT_Network.server[1] totMsgReceived ETV
vector 11 RAFT_Network.server[1] totMsgSent ETV
vector 12 RAFT_Network.server[1] totReplyToClientRequestMsgSent ETV
vector 13 RAFT_Network.server[3] totMsgReceived ETV
vector 14 RAFT_Network.server[3] totMsgSent ETV
vector 15 RAFT_Network.server[3] totReplyToClientRequestMsgSent ETV
vector 16 RAFT_Network.server[2] totMsgReceived ETV
vector 17 RAFT_Network.server[2] totMsgSent ETV
vector 18 RAFT_Network.server[2] totReplyToClientRequestMsgSent ETV
vector 19 RAFT_Network.server[0] totMsgReceived ETV
vector 20 RAFT_Network.server[0] totAppendEntriesMsgSent ETV
vector 21 RAFT_Network.server[4] totReplyToAppendEntriesMsgSent ETV
vector 22 RAFT_Network.server[1] totReplyToAppendEntriesMsgSent ETV
vector 23 RAFT_Network.server[3] totReplyToAppendEntriesMsgSent ETV
vector 24 RAFT_Network.server[2] totReplyToAppendEntriesMsgSent ETV
vector 25 RAFT_Network.server[0] totReplyToClientRequestMsgSent ETV
vector 26 RAFT_Network.client[3] responseTime ETV
vector 27 RAFT_Network.client[1] responseTime ETV
vector 28 RAFT_Network.client[0] responseTime ETV
vector 29 RAFT_Network.client[4] responseTime ETV
vector 30 RAFT_Network.client[2] responseTime ETV
vector 31 RAFT_Network.server[2] totRequestVoteMsgSent ETV
vector 32 RAFT_Network.server[2] totAppendEntriesMsgSent ETV
vector 33 RAFT_Network.server[0] totReplyToAppendEntriesMsgSent ETV
0	2568 354 11 1433 2.264876189682 100 17 -1 2 12 24
1	2922 262 13 1433 2.30466991491 100 15 -1 0 -4 4
2	3184 262 15 1433 2.327672727584 100 13 -1 2 4 12
3	3446 402 14 1433 2.311037346256 100 25 -1 0 -8 8
4	3848 208 12 1433 2.304236246681 100 11 -1 0 -2 2
5	4056 7288 11 1419 2.264876189682 99.29529060195 278 1 278 38781 7200339
6	11344 295 11 712 2.264876189682 51.161982342241 12 1 12 78 650
7	11639 1877 12 1420 2.304236246681 99.334650658949 73 1 73 2701 132349
8	13516 1673 12 1420 2.304236246681 99.334650658949 65 1 65 2145 93665
9	15189 72 12 713 2.304236246681 51.20134239924 3 1 3 6 14
10	15261 1969 13 1421 2.30466991491 99.335084327178 73 1 73 2701 132349
11	17230 1155 13 1421 2.30466991491 99.335084327178 43 1 43 946 27434
12	18385 49 13 413 2.30466991491 30.406436652555 2 1 2 3 5
13	18434 1946 14 1422 2.311037346256 99.341451758524 72 1 72 2628 127020
14	20380 1355 14 1422 2.311037346256 99.341451758524 50 1 50 1275 42925
15	21735 76 14 715 2.311037346256 51.208143498815 3 1 3 6 14
16	21811 3026 15 1423 2.327672727584 99.358087139852 112 1 112 6328 474600
17	24837 2779 15 1423 2.327672727584 99.358087139852 103 1 103 5356 369564
18	27616 359 15 633 2.327672727584 44.195026500779 14 1 14 105 1015
19	27975 6769 16 1427 2.349597934334 99.451067350456 245 1 245 30135 4932095
20	34744 5597 17 1419 2.398184449391 99.29529060195 207 1 207 21528 2978040
21	40341 1660 20 1420 2.43754450639 99.334650658949 62 1 62 1953 81375
22	42001 1104 21 1421 2.437978174619 99.335084327178 41 1 41 861 23821
23	43105 1276 22 1422 2.444345605965 99.341451758524 47 1 47 1128 35720
24	44381 1003 23 1423 2.460980987293 99.358087139852 37 1 37 703 17575
25	45384 1492 141 1372 11.5314927091 96.428598861659 56 1 56 1596 60116
26	46876 438 148 1380 11.722664811799 96.619770964358 13 3.722664811799 20.802669484104 88.619770964358 1014.0116825307
27	47314 398 149 1381 11.738065675979 96.635171828538 12 3.738065675979 34.302669484104 88.635171828538 1474.4470782003
28	47712 473 151 1383 11.767333894531 96.66444004709 14 3.767333894531 25.302669484104 88.66444004709 978.71891473804
29	48185 501 154 1386 11.817147879912 96.714254032471 15 3.817147879912 20.802669484104 88.714254032471 791.87270264534
30	48686 500 155 1387 11.87261176555 96.769717918109 15 3.87261176555 20.802669484104 88.769717918109 792.2992065949
31	49186 104 412 412 30.357586331235 30.357586331235 4 1 4 10 30
32	49290 1287 418 674 30.539249752273 46.539249752273 48 1 48 1176 38024
33	50577 78 630 676 44.132229962877 46.632229962877 3 1 3 6 14

