version 2
run StaticNetwork-0-20220314-11:20:17-10620
attr configname StaticNetwork
attr datetime 20220314-11:20:17
attr experiment StaticNetwork
attr inifile omnetpp.ini
attr iterationvars "$0=1, $1=7, $2=0"
attr iterationvarsf 1,7,0-
attr measurement "$0=1, $1=7, $2=0"
attr network RAFT_Network
attr processid 10620
attr repetition 0
attr replication #0
attr resultdir results
attr runnumber 0
attr seedset 0
param **.failureProbability 1
param **.recoveryProbability 7
param **.messageLossProbability 0
param **.clients_number 5
param **.cloud.propDelay 0.1s

vector 0 RAFT_Network.server[0] serverState ETV
vector 1 RAFT_Network.server[1] serverState ETV
vector 2 RAFT_Network.server[2] serverState ETV
vector 3 RAFT_Network.server[3] serverState ETV
vector 4 RAFT_Network.server[4] serverState ETV
vector 5 RAFT_Network.client[3] responseTime ETV
vector 6 RAFT_Network.client[1] responseTime ETV
vector 7 RAFT_Network.client[0] responseTime ETV
vector 8 RAFT_Network.client[4] responseTime ETV
vector 9 RAFT_Network.client[2] responseTime ETV
0	0	0	0
0	11	2.264876189682	0
0	11	2.264876189682	1
0	17	2.398184449391	1
0	17	2.398184449391	2
0	392	27	2
0	392	27	-1
0	618	43	-1
0	618	43	0
0	656	44.632229962877	0
0	656	44.632229962877	0
0	691	48.897106152559	0
0	691	48.897106152559	1
0	712	51.161982342241	1
0	712	51.161982342241	1
0	717	51.29529060195	1
0	717	51.29529060195	2
0	1461	100	2
1	0	0	0
1	13	2.30466991491	0
1	13	2.30466991491	0
1	413	30.406436652555	0
1	413	30.406436652555	0
1	619	43	0
1	619	43	-1
1	986	70	-1
1	986	70	0
1	1000	71.335084327178	0
1	1000	71.335084327178	0
1	1461	100	0
2	0	0	0
2	15	2.327672727584	0
2	15	2.327672727584	0
2	412	30.357586331235	0
2	412	30.357586331235	1
2	418	30.539249752273	1
2	418	30.539249752273	2
2	688	48	2
2	688	48	-1
2	916	66	-1
2	916	66	0
2	928	67.358087139852	0
2	928	67.358087139852	0
2	1461	100	0
3	0	0	0
3	14	2.311037346256	0
3	14	2.311037346256	0
3	36	4	0
3	36	4	-1
3	78	8	-1
3	78	8	0
3	99	8.444345605965	0
3	99	8.444345605965	0
3	133	11	0
3	133	11	-1
3	179	13	-1
3	179	13	0
3	189	14.444345605965	0
3	189	14.444345605965	0
3	311	21	0
3	311	21	-1
3	445	33	-1
3	445	33	0
3	487	34.650425973375	0
3	487	34.650425973375	0
3	694	48.943267309133	0
3	694	48.943267309133	0
3	715	51.208143498815	0
3	715	51.208143498815	0
3	764	54	0
3	764	54	-1
3	877	64	-1
3	877	64	0
3	905	65.341451758524	0
3	905	65.341451758524	0
3	1063	75	0
3	1063	75	-1
3	1374	95	-1
3	1374	95	0
3	1379	95.341451758524	0
3	1379	95.341451758524	0
3	1461	100	0
4	0	0	0
4	12	2.304236246681	0
4	12	2.304236246681	0
4	417	30.523331945231	0
4	417	30.523331945231	0
4	673	46	0
4	673	46	-1
4	711	51	-1
4	711	51	0
4	713	51.20134239924	0
4	713	51.20134239924	0
4	1461	100	0
5	148	11.722664811799	3.722664811799
5	219	16.222664811799	4.5
5	295	20.722664811799	4.5
5	364	25.222664811799	4.5
5	641	44.327531643913	19.104866832114
5	895	65.130201128017	20.802669484104
5	973	69.630201128017	4.5
5	1045	74.119770964358	4.489569836341
5	1113	78.619770964358	4.5
5	1186	83.119770964358	4.5
5	1262	87.619770964358	4.5
5	1335	92.119770964358	4.5
5	1405	96.619770964358	4.5
6	149	11.738065675979	3.738065675979
6	220	16.238065675979	4.5
6	296	20.738065675979	4.5
6	365	25.238065675979	4.5
6	508	35.301251214144	10.063185538165
6	568	39.801251214144	4.5
6	642	44.342932508093	4.541681293949
6	1114	78.635171828538	34.292239320445
6	1187	83.135171828538	4.5
6	1263	87.635171828538	4.5
6	1336	92.135171828538	4.5
6	1406	96.635171828538	4.5
7	151	11.767333894531	3.767333894531
7	222	16.267333894531	4.5
7	298	20.767333894531	4.5
7	367	25.267333894531	4.5
7	510	35.330519432696	10.063185538165
7	570	39.830519432696	4.5
7	644	44.372200726645	4.541681293949
7	974	69.674870210749	25.302669484104
7	1046	74.16444004709	4.489569836341
7	1116	78.66444004709	4.5
7	1189	83.16444004709	4.5
7	1265	87.66444004709	4.5
7	1338	92.16444004709	4.5
7	1408	96.66444004709	4.5
8	154	11.817147879912	3.817147879912
8	225	16.317147879912	4.5
8	301	20.817147879912	4.5
8	370	25.317147879912	4.5
8	512	35.380333418077	10.063185538165
8	572	39.880333418077	4.5
8	647	44.422014712026	4.541681293949
8	897	65.22468419613	20.802669484104
8	898	65.22468419613	0
8	977	69.72468419613	4.5
8	978	69.72468419613	0
8	1049	74.214254032471	4.489569836341
8	1050	74.214254032471	0
8	1119	78.714254032471	4.5
8	1120	78.714254032471	0
8	1192	83.214254032471	4.5
8	1193	83.214254032471	0
8	1268	87.714254032471	4.5
8	1269	87.714254032471	0
8	1341	92.214254032471	4.5
8	1342	92.214254032471	0
8	1411	96.714254032471	4.5
8	1412	96.714254032471	0
9	155	11.87261176555	3.87261176555
9	226	16.37261176555	4.5
9	302	20.87261176555	4.5
9	371	25.37261176555	4.5
9	513	35.435797303715	10.063185538165
9	573	39.935797303715	4.5
9	648	44.477478597664	4.541681293949
9	899	65.280148081768	20.802669484104
9	979	69.780148081768	4.5
9	1051	74.269717918109	4.489569836341
9	1121	78.769717918109	4.5
9	1194	83.269717918109	4.5
9	1270	87.769717918109	4.5
9	1343	92.269717918109	4.5
9	1413	96.769717918109	4.5

