file 1082214 1648889504                                         
version 2
run StaticNetwork-37-20220402-10:51:41-10268
attr configname StaticNetwork
attr datetime 20220402-10:51:41
attr experiment StaticNetwork
attr inifile omnetpp.ini
attr iterationvars "$0=3, $1=5, $2=normal(7.0s, 1.5s), $3=uniform(0.1s, 0.3s), $4=6s, $5=2s, $6=4.5s, $7=5s, $8=1s, $9=1, $10=7, $11=0"
attr iterationvarsf 3,5,normal(7.0s,_1.5s),uniform(0.1s,_0.3s),6s,2s,4.5s,5s,1s,1,7,0-
attr measurement "$0=3, $1=5, $2=normal(7.0s, 1.5s), $3=uniform(0.1s, 0.3s), $4=6s, $5=2s, $6=4.5s, $7=5s, $8=1s, $9=1, $10=7, $11=0"
attr network RAFT_Network
attr processid 10268
attr repetition 1
attr replication #1
attr resultdir results
attr runnumber 37
attr seedset 37
param **.servers_number 3
param **.clients_number 5
param **.client[*].requestMsgTimeout "normal(7.0s, 1.5s)"
param **.cloud.propDelay "uniform(0.1s, 0.3s)"
param **.server[*].electionTimeout 6s
param **.server[*].heartbeatTimeout 2s
param **.server[*].appendEntriesTimeout 4.5s
param **.server[*].checkFailureTimeout 5s
param **.server[*].checkRecoveryTimeout 1s
param **.failureProbability 1
param **.recoveryProbability 7
param **.messageLossProbability 0

vector 0 RAFT_Network.server[0] serverState ETV
vector 1 RAFT_Network.server[1] serverState ETV
vector 2 RAFT_Network.server[2] serverState ETV
0	1307 9 0 0 0 0 1 0 0 0 0
1	1316 9 0 0 0 0 1 0 0 0 0
2	1325 9 0 0 0 0 1 0 0 0 0
vector 3 RAFT_Network.server[0] totMsgReceived ETV
vector 4 RAFT_Network.server[0] totMsgSent ETV
vector 5 RAFT_Network.server[0] totRequestVoteMsgSent ETV
vector 6 RAFT_Network.server[1] totMsgSent ETV
vector 7 RAFT_Network.server[1] totRequestVoteMsgSent ETV
vector 8 RAFT_Network.server[2] totMsgSent ETV
vector 9 RAFT_Network.server[2] totRequestVoteMsgSent ETV
vector 10 RAFT_Network.server[1] totMsgReceived ETV
vector 11 RAFT_Network.server[1] totReplyToClientRequestMsgSent ETV
vector 12 RAFT_Network.server[0] totReplyToClientRequestMsgSent ETV
vector 13 RAFT_Network.server[2] totMsgReceived ETV
vector 14 RAFT_Network.server[2] totReplyToClientRequestMsgSent ETV
vector 15 RAFT_Network.server[0] electionsMeanTime ETV
vector 16 RAFT_Network.server[0] totAppendEntriesMsgSent ETV
vector 17 RAFT_Network.server[1] totReplyToAppendEntriesMsgSent ETV
vector 18 RAFT_Network.server[2] totReplyToAppendEntriesMsgSent ETV
vector 19 RAFT_Network.client[3] responseTime ETV
vector 20 RAFT_Network.client[0] responseTime ETV
vector 21 RAFT_Network.client[4] responseTime ETV
vector 22 RAFT_Network.client[2] responseTime ETV
vector 23 RAFT_Network.client[1] responseTime ETV
vector 24 RAFT_Network.server[1] totAppendEntriesMsgSent ETV
vector 25 RAFT_Network.server[0] totReplyToAppendEntriesMsgSent ETV
0	2662 5610 7 24411 6 3000 249 -1 2 210 246
1	8272 5702 8 24411 6 3000 241 -1 2 206 230
2	13974 6070 9 24411 6 3000 257 -1 1 206 234
3	20044 135916 6 24410 5.587713552238 2999.836764954464 4451 1 4451 9907926 29403421726
4	155960 120177 7 24403 6 2999.728274589046 3980 1 3980 7922190 21022851530
5	276137 5152 7 20217 6 2518.210427326146 210 1 210 22155 3109085
6	281289 133307 8 24402 6 2999.722815222194 4294 1 4294 9221365 26400767995
7	414596 5470 8 19934 6 2470.204967959294 212 1 212 22578 3198550
8	420066 61811 9 24404 6 2999.768346993093 2040 1 2040 2081820 2831969140
9	481877 5710 9 20222 6 2518.250499730193 220 1 220 24310 3573570
10	487587 140398 10 24402 6.003464264598 2999.722815222194 4370 1 4370 9550635 27827366845
11	627985 48980 10 20224 6.003464264598 2518.267062558631 1542 1 1542 1189653 1223359835
12	676965 42179 11 24403 6.005459366852 2999.728274589046 1390 1 1390 966745 896172615
13	719144 70606 15 24404 6.048996035497 2999.768346993093 2236 1 2236 2500966 3728940306
14	789750 5905 15 20223 6.048996035497 2518.259423361643 201 1 201 20301 2727101
15	795655 168 702 20219 138.00892363145 2518.219350957596 4 6.117413996868 366.06624243493 678.20696306155 181749.27801305
16	795823 48347 702 24401 138.00892363145 2999.719350957596 1560 1 1560 1217580 1266689060
17	844170 24041 703 24402 138.012387896048 2999.722815222194 776 1 776 301476 156064076
18	868211 51379 708 24404 138.057919666947 2999.768346993093 1619 1 1619 1311390 1415864070
19	919590 16050 759 24373 142.835654280091 2995.546081606237 507 4.391509634582 378.07838309969 2989.2715178961 206464.48145054
20	935640 15988 760 24374 142.853999839921 2995.564427166067 505 4.391509634582 382.57838309969 2986.2517108047 209205.55760655
21	951628 16022 761 24375 142.870007409596 2995.580434735742 506 3.857975037077 378.07838309969 2987.2686861202 206087.88361669
22	967650 16041 765 24379 142.938380069338 2995.648807395484 506 3.769014959064 382.57838309969 2988.6098091544 209701.12383107
23	983691 16018 767 24381 142.990171149638 2995.700598475784 506 4.391509634582 378.07838309969 2990.3568955137 206916.12797006
24	999709 56587 7193 17770 966.078630330976 2186.078630330976 1764 1 1764 1556730 1831233390
25	1056296 25916 7194 17771 966.084089697828 2186.084089697828 820 1 820 336610 184125670

