version 2
run StaticNetwork-1-20220330-11:26:45-22136
attr configname StaticNetwork
attr datetime 20220330-11:26:45
attr experiment StaticNetwork
attr inifile omnetpp.ini
attr iterationvars "$0=5, $1=5, $2=normal(7.0s, 1.5s), $3=uniform(0.1s, 0.3s), $4=normal(5.0s, 1s), $5=2s, $6=4.5s, $7=1s, $8=1s, $9=1, $10=7, $11=0"
attr iterationvarsf 5,5,normal(7.0s,_1.5s),uniform(0.1s,_0.3s),normal(5.0s,_1s),2s,4.5s,1s,1s,1,7,0-
attr measurement "$0=5, $1=5, $2=normal(7.0s, 1.5s), $3=uniform(0.1s, 0.3s), $4=normal(5.0s, 1s), $5=2s, $6=4.5s, $7=1s, $8=1s, $9=1, $10=7, $11=0"
attr network RAFT_Network
attr processid 22136
attr repetition 1
attr replication #1
attr resultdir results
attr runnumber 1
attr seedset 1
param **.servers_number 5
param **.clients_number 5
param **.client[*].requestMsgTimeout "normal(7.0s, 1.5s)"
param **.cloud.propDelay "uniform(0.1s, 0.3s)"
param **.server[*].electionTimeout "normal(5.0s, 1s)"
param **.server[*].heartbeatTimeout 2s
param **.server[*].appendEntriesTimeout 4.5s
param **.server[*].checkFailureTimeout 1s
param **.server[*].checkRecoveryTimeout 1s
param **.failureProbability 1
param **.recoveryProbability 7
param **.messageLossProbability 0

vector 0 RAFT_Network.server[0] serverState ETV
vector 1 RAFT_Network.server[1] serverState ETV
vector 2 RAFT_Network.server[2] serverState ETV
vector 3 RAFT_Network.server[3] serverState ETV
vector 4 RAFT_Network.server[4] serverState ETV
vector 5 RAFT_Network.server[2] totMsgSent ETV
vector 6 RAFT_Network.server[2] totRequestVoteMsgSent ETV
vector 7 RAFT_Network.server[0] totMsgReceived ETV
vector 8 RAFT_Network.server[0] totMsgSent ETV
vector 9 RAFT_Network.server[0] totReplyToClientRequestMsgSent ETV
vector 10 RAFT_Network.server[3] totMsgReceived ETV
vector 11 RAFT_Network.server[3] totMsgSent ETV
vector 12 RAFT_Network.server[3] totReplyToClientRequestMsgSent ETV
vector 13 RAFT_Network.server[2] totMsgReceived ETV
vector 14 RAFT_Network.server[4] totMsgSent ETV
vector 15 RAFT_Network.server[4] totRequestVoteMsgSent ETV
vector 16 RAFT_Network.server[2] totAppendEntriesMsgSent ETV
vector 17 RAFT_Network.server[2] totReplyToClientRequestMsgSent ETV
vector 18 RAFT_Network.server[4] totMsgReceived ETV
vector 19 RAFT_Network.server[1] totMsgReceived ETV
vector 20 RAFT_Network.server[1] totMsgSent ETV
vector 21 RAFT_Network.server[1] totReplyToClientRequestMsgSent ETV
vector 22 RAFT_Network.server[0] totReplyToAppendEntriesMsgSent ETV
vector 23 RAFT_Network.server[3] totReplyToAppendEntriesMsgSent ETV
vector 24 RAFT_Network.server[1] totReplyToAppendEntriesMsgSent ETV
vector 25 RAFT_Network.server[4] totReplyToClientRequestMsgSent ETV
vector 26 RAFT_Network.server[4] totReplyToAppendEntriesMsgSent ETV
vector 27 RAFT_Network.client[1] responseTime ETV
vector 28 RAFT_Network.client[0] responseTime ETV
vector 29 RAFT_Network.client[4] responseTime ETV
vector 30 RAFT_Network.client[2] responseTime ETV
vector 31 RAFT_Network.client[3] responseTime ETV
vector 32 RAFT_Network.server[4] totAppendEntriesMsgSent ETV
vector 33 RAFT_Network.server[2] totReplyToAppendEntriesMsgSent ETV
vector 34 RAFT_Network.server[3] totRequestVoteMsgSent ETV
vector 35 RAFT_Network.server[3] totAppendEntriesMsgSent ETV
vector 36 RAFT_Network.server[0] totRequestVoteMsgSent ETV
vector 37 RAFT_Network.server[0] totAppendEntriesMsgSent ETV
0	0	0	0
0	27	5.021919424931	0
0	27	5.021919424931	0
0	541	36	0
0	541	36	-1
0	720	47	-1
0	720	47	0
0	1087	72.249612896087	0
0	1087	72.249612896087	0
0	1854	121	0
0	1854	121	-1
0	1964	128	-1
0	1964	128	0
0	2238	148.354096931198	0
0	2238	148.354096931198	0
0	2295	154.202624672194	0
0	2295	154.202624672194	0
0	2437	168.375848319059	0
0	2437	168.375848319059	1
0	2499	174.358911098095	1
0	2499	174.358911098095	0
0	2754	193.417694342136	0
0	2754	193.417694342136	0
0	2813	199.550109879512	0
0	2813	199.550109879512	1
0	2872	205.588798488337	1
0	2872	205.588798488337	1
0	2877	205.6653834335	1
0	2877	205.6653834335	2
0	3083	219	2
0	3083	219	-1
0	3323	237	-1
0	3323	237	0
0	3341	237.770691455017	0
0	3341	237.770691455017	0
0	3528	250	0
1	0	0	0
1	35	5.065987220529	0
1	35	5.065987220529	0
1	332	23	0
1	332	23	-1
1	432	28	-1
1	432	28	0
1	1090	72.289124780275	0
1	1090	72.289124780275	0
1	1627	105	0
1	1627	105	-1
1	2390	164	-1
1	2390	164	0
1	2439	168.394639278692	0
1	2439	168.394639278692	0
1	2496	174.28068078577	0
1	2496	174.28068078577	0
1	2757	193.461762137734	0
1	2757	193.461762137734	0
1	2815	199.568900839145	0
1	2815	199.568900839145	0
1	2874	205.60758944797	0
1	2874	205.60758944797	0
1	3113	222	0
1	3113	222	-1
1	3229	231	-1
1	3229	231	0
1	3240	231.814759250615	0
1	3240	231.814759250615	0
1	3528	250	0
2	0	0	0
2	26	5.010483204601	0
2	26	5.010483204601	1
2	32	5.059093909465	1
2	32	5.059093909465	2
2	1068	69	2
2	1068	69	-1
2	1226	81	-1
2	1226	81	0
2	1265	82.330714601669	0
2	1265	82.330714601669	0
2	2171	141	0
2	2171	141	-1
2	2471	173	-1
2	2471	173	0
2	2495	174.261239879165	0
2	2495	174.261239879165	0
2	2752	193.406258121806	0
2	2752	193.406258121806	1
2	2758	193.499985050357	1
2	2758	193.499985050357	2
2	2775	194	2
2	2775	194	-1
2	2994	212	-1
2	2994	212	0
2	3007	213.702557918034	0
2	3007	213.702557918034	0
2	3124	222.713041122635	0
2	3124	222.713041122635	1
2	3173	227.723524327236	1
2	3173	227.723524327236	1
2	3176	227.759255234687	1
2	3176	227.759255234687	2
2	3528	250	2
3	0	0	0
3	28	5.038650466168	0
3	28	5.038650466168	0
3	852	55	0
3	852	55	-1
3	1021	67	-1
3	1021	67	0
3	1093	72.328882799269	0
3	1093	72.328882799269	0
3	2233	148.248862066384	0
3	2233	148.248862066384	1
3	2289	154.09738980738	1
3	2289	154.09738980738	1
3	2296	154.23192484542	1
3	2296	154.23192484542	2
3	2392	164	2
3	2392	164	-1
3	2400	165	-1
3	2400	165	0
3	2440	168.405148492285	0
3	2440	168.405148492285	0
3	2494	174.253676233281	0
3	2494	174.253676233281	1
3	2500	174.388211271321	1
3	2500	174.388211271321	2
3	2721	189	2
3	2721	189	-1
3	2806	198	-1
3	2806	198	0
3	2816	199.579410052738	0
3	2816	199.579410052738	0
3	2858	203	0
3	2858	203	-1
3	2863	204	-1
3	2863	204	0
3	2875	205.618098661563	0
3	2875	205.618098661563	0
3	3129	222.741208384202	0
3	3129	222.741208384202	0
3	3175	227.751691588803	0
3	3175	227.751691588803	0
3	3528	250	0
4	0	0	0
4	30	5.049181574677	0
4	30	5.049181574677	1
4	48	5.199042840029	1
4	48	5.199042840029	0
4	1086	72.248224414706	0
4	1086	72.248224414706	1
4	1091	72.319675940825	1
4	1091	72.319675940825	2
4	2190	143	2
4	2190	143	-1
4	2538	177	-1
4	2538	177	0
4	2548	178.463552908771	0
4	2548	178.463552908771	0
4	2741	192	0
4	2741	192	-1
4	2903	207	-1
4	2903	207	0
4	2910	207.678424225997	0
4	2910	207.678424225997	0
4	3126	222.727605800674	0
4	3126	222.727605800674	1
4	3178	227.776787375351	1
4	3178	227.776787375351	1
4	3189	227.899204165251	1
4	3189	227.899204165251	0
4	3327	237	0
4	3327	237	-1
4	3352	238	-1
4	3352	238	0
4	3528	250	0
5	26	5.010483204601	1
5	26	5.010483204601	2
5	26	5.010483204601	3
5	26	5.010483204601	4
5	32	5.059093909465	5
5	32	5.059093909465	6
5	32	5.059093909465	7
5	32	5.059093909465	8
5	33	5.060220235521	9
5	78	7.059093909465	10
5	78	7.059093909465	11
5	78	7.059093909465	12
5	78	7.059093909465	13
5	115	9.059093909465	14
5	115	9.059093909465	15
5	115	9.059093909465	16
5	115	9.059093909465	17
5	125	9.559093909465	18
5	125	9.559093909465	19
5	125	9.559093909465	20
5	125	9.559093909465	21
5	129	9.607704614329	22
5	129	9.607704614329	23
5	129	9.607704614329	24
5	129	9.607704614329	25
5	129	9.607704614329	26
5	164	11.059093909465	27
5	164	11.059093909465	28
5	164	11.059093909465	29
5	164	11.059093909465	30
5	183	13.059093909465	31
5	183	13.059093909465	32
5	183	13.059093909465	33
5	183	13.059093909465	34
5	197	14.059093909465	35
5	197	14.059093909465	36
5	197	14.059093909465	37
5	197	14.059093909465	38
5	201	14.107704614329	39
5	201	14.107704614329	40
5	201	14.107704614329	41
5	201	14.107704614329	42
5	201	14.107704614329	43
5	231	15.059093909465	44
5	231	15.059093909465	45
5	231	15.059093909465	46
5	231	15.059093909465	47
5	250	17.059093909465	48
5	250	17.059093909465	49
5	250	17.059093909465	50
5	250	17.059093909465	51
5	264	18.559093909465	52
5	264	18.559093909465	53
5	264	18.559093909465	54
5	264	18.559093909465	55
5	268	18.607704614329	56
5	268	18.607704614329	57
5	268	18.607704614329	58
5	268	18.607704614329	59
5	268	18.607704614329	60
5	293	19.059093909465	61
5	293	19.059093909465	62
5	293	19.059093909465	63
5	293	19.059093909465	64
5	317	21.059093909465	65
5	317	21.059093909465	66
5	317	21.059093909465	67
5	317	21.059093909465	68
5	336	23.059093909465	69
5	336	23.059093909465	70
5	336	23.059093909465	71
5	336	23.059093909465	72
5	337	23.059093909465	73
5	337	23.059093909465	74
5	337	23.059093909465	75
5	337	23.059093909465	76
5	344	23.107704614329	77
5	344	23.107704614329	78
5	344	23.107704614329	79
5	344	23.107704614329	80
5	344	23.107704614329	81
5	382	25.059093909465	82
5	382	25.059093909465	83
5	382	25.059093909465	84
5	382	25.059093909465	85
5	400	27.059093909465	86
5	400	27.059093909465	87
5	400	27.059093909465	88
5	400	27.059093909465	89
5	408	27.559093909465	90
5	408	27.559093909465	91
5	408	27.559093909465	92
5	408	27.559093909465	93
5	412	27.607704614329	94
5	412	27.607704614329	95
5	412	27.607704614329	96
5	412	27.607704614329	97
5	412	27.607704614329	98
5	446	29.059093909465	99
5	446	29.059093909465	100
5	446	29.059093909465	101
5	446	29.059093909465	102
5	465	31.059093909465	103
5	465	31.059093909465	104
5	465	31.059093909465	105
5	465	31.059093909465	106
5	479	32.059093909465	107
5	479	32.059093909465	108
5	479	32.059093909465	109
5	479	32.059093909465	110
5	483	32.107704614329	111
5	483	32.107704614329	112
5	483	32.107704614329	113
5	483	32.107704614329	114
5	483	32.107704614329	115
5	513	33.059093909465	116
5	513	33.059093909465	117
5	513	33.059093909465	118
5	513	33.059093909465	119
5	532	35.059093909465	120
5	532	35.059093909465	121
5	532	35.059093909465	122
5	532	35.059093909465	123
5	546	36.559093909465	124
5	546	36.559093909465	125
5	546	36.559093909465	126
5	546	36.559093909465	127
5	551	36.652820838016	128
5	551	36.652820838016	129
5	551	36.652820838016	130
5	551	36.652820838016	131
5	551	36.652820838016	132
5	574	37.059093909465	133
5	574	37.059093909465	134
5	574	37.059093909465	135
5	574	37.059093909465	136
5	597	39.059093909465	137
5	597	39.059093909465	138
5	597	39.059093909465	139
5	597	39.059093909465	140
5	615	41.059093909465	141
5	615	41.059093909465	142
5	615	41.059093909465	143
5	615	41.059093909465	144
5	616	41.059093909465	145
5	616	41.059093909465	146
5	616	41.059093909465	147
5	616	41.059093909465	148
5	625	41.152820838016	149
5	625	41.152820838016	150
5	625	41.152820838016	151
5	625	41.152820838016	152
5	625	41.152820838016	153
5	661	43.059093909465	154
5	661	43.059093909465	155
5	661	43.059093909465	156
5	661	43.059093909465	157
5	679	45.059093909465	158
5	679	45.059093909465	159
5	679	45.059093909465	160
5	679	45.059093909465	161
5	687	45.559093909465	162
5	687	45.559093909465	163
5	687	45.559093909465	164
5	687	45.559093909465	165
5	692	45.652820838016	166
5	692	45.652820838016	167
5	692	45.652820838016	168
5	692	45.652820838016	169
5	692	45.652820838016	170
5	725	47.059093909465	171
5	725	47.059093909465	172
5	725	47.059093909465	173
5	725	47.059093909465	174
5	744	49.059093909465	175
5	744	49.059093909465	176
5	744	49.059093909465	177
5	744	49.059093909465	178
5	758	50.059093909465	179
5	758	50.059093909465	180
5	758	50.059093909465	181
5	758	50.059093909465	182
5	762	50.107704614329	183
5	762	50.107704614329	184
5	762	50.107704614329	185
5	762	50.107704614329	186
5	762	50.107704614329	187
5	792	51.059093909465	188
5	792	51.059093909465	189
5	792	51.059093909465	190
5	792	51.059093909465	191
5	811	53.059093909465	192
5	811	53.059093909465	193
5	811	53.059093909465	194
5	811	53.059093909465	195
5	825	54.559093909465	196
5	825	54.559093909465	197
5	825	54.559093909465	198
5	825	54.559093909465	199
5	829	54.607704614329	200
5	829	54.607704614329	201
5	829	54.607704614329	202
5	829	54.607704614329	203
5	829	54.607704614329	204
5	854	55.059093909465	205
5	854	55.059093909465	206
5	854	55.059093909465	207
5	854	55.059093909465	208
5	877	57.059093909465	209
5	877	57.059093909465	210
5	877	57.059093909465	211
5	877	57.059093909465	212
5	895	59.059093909465	213
5	895	59.059093909465	214
5	895	59.059093909465	215
5	895	59.059093909465	216
5	896	59.059093909465	217
5	896	59.059093909465	218
5	896	59.059093909465	219
5	896	59.059093909465	220
5	905	59.152820838016	221
5	905	59.152820838016	222
5	905	59.152820838016	223
5	905	59.152820838016	224
5	905	59.152820838016	225
5	941	61.059093909465	226
5	941	61.059093909465	227
5	941	61.059093909465	228
5	941	61.059093909465	229
5	959	63.059093909465	230
5	959	63.059093909465	231
5	959	63.059093909465	232
5	959	63.059093909465	233
5	967	63.559093909465	234
5	967	63.559093909465	235
5	967	63.559093909465	236
5	967	63.559093909465	237
5	972	63.652820838016	238
5	972	63.652820838016	239
5	972	63.652820838016	240
5	972	63.652820838016	241
5	972	63.652820838016	242
5	1005	65.059093909465	243
5	1005	65.059093909465	244
5	1005	65.059093909465	245
5	1005	65.059093909465	246
5	1023	67.059093909465	247
5	1023	67.059093909465	248
5	1023	67.059093909465	249
5	1023	67.059093909465	250
5	1037	68.059093909465	251
5	1037	68.059093909465	252
5	1037	68.059093909465	253
5	1037	68.059093909465	254
5	1041	68.107704614329	255
5	1041	68.107704614329	256
5	1041	68.107704614329	257
5	1041	68.107704614329	258
5	1041	68.107704614329	259
5	1231	81.330714601669	260
5	1265	82.330714601669	261
5	1284	84.330714601669	262
5	1298	85.830714601669	263
5	1327	86.330714601669	264
5	1351	88.330714601669	265
5	1372	90.330714601669	266
5	1373	90.330714601669	267
5	1418	92.330714601669	268
5	1437	94.330714601669	269
5	1446	94.830714601669	270
5	1485	96.330714601669	271
5	1504	98.330714601669	272
5	1518	99.330714601669	273
5	1552	100.330714601669	274
5	1571	102.330714601669	275
5	1585	103.830714601669	276
5	1614	104.330714601669	277
5	1638	106.330714601669	278
5	1658	108.330714601669	279
5	1659	108.330714601669	280
5	1702	110.330714601669	281
5	1720	112.330714601669	282
5	1728	112.830714601669	283
5	1766	114.330714601669	284
5	1784	116.330714601669	285
5	1797	117.330714601669	286
5	1830	118.330714601669	287
5	1848	120.330714601669	288
5	1861	121.830714601669	289
5	1883	122.330714601669	290
5	1910	124.330714601669	291
5	1929	126.330714601669	292
5	1930	126.330714601669	293
5	1971	128.330714601669	294
5	1989	130.330714601669	295
5	1997	130.830714601669	296
5	2035	132.330714601669	297
5	2053	134.330714601669	298
5	2066	135.330714601669	299
5	2099	136.330714601669	300
5	2117	138.330714601669	301
5	2130	139.830714601669	302
5	2154	140.330714601669	303
5	2495	174.261239879165	304
5	2501	174.395774917205	305
5	2527	176.395774917205	306
5	2545	178.395774917205	307
5	2578	180.395774917205	308
5	2608	182.395774917205	309
5	2622	183.395774917205	310
5	2642	184.395774917205	311
5	2664	186.395774917205	312
5	2693	187.895774917205	313
5	2707	188.395774917205	314
5	2752	193.406258121806	315
5	2752	193.406258121806	316
5	2752	193.406258121806	317
5	2752	193.406258121806	318
5	2758	193.499985050357	319
5	2758	193.499985050357	320
5	2758	193.499985050357	321
5	2758	193.499985050357	322
5	3007	213.702557918034	323
5	3021	214.702557918034	324
5	3055	215.702557918034	325
5	3074	217.702557918034	326
5	3124	222.713041122635	327
5	3124	222.713041122635	328
5	3124	222.713041122635	329
5	3124	222.713041122635	330
5	3128	222.738644461518	331
5	3173	227.723524327236	332
5	3173	227.723524327236	333
5	3173	227.723524327236	334
5	3173	227.723524327236	335
5	3176	227.759255234687	336
5	3176	227.759255234687	337
5	3176	227.759255234687	338
5	3176	227.759255234687	339
5	3182	227.787826036195	340
5	3216	229.759255234687	341
5	3216	229.759255234687	342
5	3216	229.759255234687	343
5	3216	229.759255234687	344
5	3236	231.759255234687	345
5	3236	231.759255234687	346
5	3236	231.759255234687	347
5	3236	231.759255234687	348
5	3249	232.259255234687	349
5	3249	232.259255234687	350
5	3249	232.259255234687	351
5	3249	232.259255234687	352
5	3256	232.410242826095	353
5	3256	232.410242826095	354
5	3277	233.759255234687	355
5	3277	233.759255234687	356
5	3277	233.759255234687	357
5	3277	233.759255234687	358
5	3298	235.759255234687	359
5	3298	235.759255234687	360
5	3298	235.759255234687	361
5	3298	235.759255234687	362
5	3311	236.759255234687	363
5	3311	236.759255234687	364
5	3311	236.759255234687	365
5	3311	236.759255234687	366
5	3318	236.910242826095	367
5	3318	236.910242826095	368
5	3318	236.910242826095	369
5	3318	236.910242826095	370
5	3340	237.759255234687	371
5	3340	237.759255234687	372
5	3340	237.759255234687	373
5	3340	237.759255234687	374
5	3361	239.759255234687	375
5	3361	239.759255234687	376
5	3361	239.759255234687	377
5	3361	239.759255234687	378
5	3380	241.259255234687	379
5	3380	241.259255234687	380
5	3380	241.259255234687	381
5	3380	241.259255234687	382
5	3384	241.307865939551	383
5	3384	241.307865939551	384
5	3384	241.307865939551	385
5	3384	241.307865939551	386
5	3384	241.307865939551	387
5	3404	241.759255234687	388
5	3404	241.759255234687	389
5	3404	241.759255234687	390
5	3404	241.759255234687	391
5	3428	243.759255234687	392
5	3428	243.759255234687	393
5	3428	243.759255234687	394
5	3428	243.759255234687	395
5	3447	245.759255234687	396
5	3447	245.759255234687	397
5	3447	245.759255234687	398
5	3447	245.759255234687	399
5	3448	245.759255234687	400
5	3448	245.759255234687	401
5	3448	245.759255234687	402
5	3448	245.759255234687	403
5	3455	245.807865939551	404
5	3455	245.807865939551	405
5	3455	245.807865939551	406
5	3455	245.807865939551	407
5	3455	245.807865939551	408
5	3495	247.759255234687	409
5	3495	247.759255234687	410
5	3495	247.759255234687	411
5	3495	247.759255234687	412
5	3514	249.759255234687	413
5	3514	249.759255234687	414
5	3514	249.759255234687	415
5	3514	249.759255234687	416
6	26	5.010483204601	1
6	26	5.010483204601	2
6	26	5.010483204601	3
6	26	5.010483204601	4
6	2752	193.406258121806	5
6	2752	193.406258121806	6
6	2752	193.406258121806	7
6	2752	193.406258121806	8
6	3124	222.713041122635	9
6	3124	222.713041122635	10
6	3124	222.713041122635	11
6	3124	222.713041122635	12
6	3173	227.723524327236	13
6	3173	227.723524327236	14
6	3173	227.723524327236	15
6	3173	227.723524327236	16
7	27	5.021919424931	1
7	31	5.050570056058	2
7	36	5.070530129795	3
7	63	6.595357374915	4
7	64	6.601313422944	5
7	79	7.070530129795	6
7	116	9.070530129795	7
7	126	9.570530129795	8
7	165	11.070530129795	9
7	184	13.070530129795	10
7	198	14.070530129795	11
7	232	15.070530129795	12
7	251	17.070530129795	13
7	265	18.570530129795	14
7	295	19.070530129795	15
7	318	21.070530129795	16
7	338	23.070530129795	17
7	339	23.070530129795	18
7	383	25.070530129795	19
7	401	27.070530129795	20
7	409	27.570530129795	21
7	447	29.070530129795	22
7	466	31.070530129795	23
7	480	32.070530129795	24
7	514	33.070530129795	25
7	533	35.070530129795	26
7	547	36.570530129795	27
7	575	37.070530129795	28
7	598	39.070530129795	29
7	617	41.070530129795	30
7	618	41.070530129795	31
7	662	43.070530129795	32
7	680	45.070530129795	33
7	688	45.570530129795	34
7	726	47.070530129795	35
7	745	49.070530129795	36
7	759	50.070530129795	37
7	793	51.070530129795	38
7	812	53.070530129795	39
7	826	54.570530129795	40
7	856	55.070530129795	41
7	878	57.070530129795	42
7	897	59.070530129795	43
7	898	59.070530129795	44
7	942	61.070530129795	45
7	960	63.070530129795	46
7	968	63.570530129795	47
7	1006	65.070530129795	48
7	1024	67.070530129795	49
7	1038	68.070530129795	50
7	1087	72.249612896087	51
7	1092	72.321064422206	52
7	1112	74.321064422206	53
7	1126	74.95514233263	54
7	1143	76.321064422206	55
7	1154	76.821064422206	56
7	1174	77.091688647746	57
7	1199	78.321064422206	58
7	1217	80.321064422206	59
7	1230	81.321064422206	60
7	1264	82.321064422206	61
7	1283	84.321064422206	62
7	1297	85.821064422206	63
7	1326	86.321064422206	64
7	1350	88.321064422206	65
7	1370	90.321064422206	66
7	1371	90.321064422206	67
7	1417	92.321064422206	68
7	1436	94.321064422206	69
7	1445	94.821064422206	70
7	1484	96.321064422206	71
7	1503	98.321064422206	72
7	1517	99.321064422206	73
7	1551	100.321064422206	74
7	1570	102.321064422206	75
7	1584	103.821064422206	76
7	1613	104.321064422206	77
7	1637	106.321064422206	78
7	1656	108.321064422206	79
7	1657	108.321064422206	80
7	1701	110.321064422206	81
7	1719	112.321064422206	82
7	1727	112.821064422206	83
7	1765	114.321064422206	84
7	1783	116.321064422206	85
7	1796	117.321064422206	86
7	1829	118.321064422206	87
7	1847	120.321064422206	88
7	1860	121.821064422206	89
7	1882	122.321064422206	90
7	1909	124.321064422206	91
7	1927	126.321064422206	92
7	1928	126.321064422206	93
7	1970	128.321064422206	94
7	1988	130.321064422206	95
7	1996	130.821064422206	96
7	2034	132.321064422206	97
7	2052	134.321064422206	98
7	2065	135.321064422206	99
7	2098	136.321064422206	100
7	2116	138.321064422206	101
7	2129	139.821064422206	102
7	2152	140.321064422206	103
7	2180	142.321064422206	104
7	2212	146.870310546407	105
7	2238	148.354096931198	106
7	2272	153.204308601989	107
7	2295	154.202624672194	108
7	2300	154.337159710234	109
7	2317	156.337159710234	110
7	2339	158.337159710234	111
7	2360	160.337159710234	112
7	2381	162.337159710234	113
7	2404	165.780492203922	114
7	2442	168.452433264222	115
7	2443	168.510383357099	116
7	2499	174.358911098095	117
7	2506	174.493446136135	118
7	2531	176.493446136135	119
7	2549	178.493446136135	120
7	2561	179.493391727172	121
7	2572	180.149035596038	122
7	2582	180.493446136135	123
7	2612	182.493446136135	124
7	2626	183.493446136135	125
7	2647	184.493446136135	126
7	2667	186.453047302249	127
7	2669	186.493446136135	128
7	2697	187.993446136135	129
7	2711	188.493446136135	130
7	2717	188.944400023482	131
7	2753	193.412702877326	132
7	2754	193.417694342136	133
7	2759	193.511421270687	134
7	2818	199.626694824675	135
7	2819	199.684644917552	136
7	2844	201.157891882748	137
7	2877	205.6653834335	138
7	2882	205.723333526377	139
7	2883	205.731523368666	140
7	2884	205.741968378663	141
7	2885	205.79991847154	142
7	2904	207.196536811637	143
7	2911	207.679812707378	144
7	2914	207.699325856896	145
7	2916	207.741968378663	146
7	2917	207.79991847154	147
7	2929	208.9295912127	148
7	2937	209.650998586374	149
7	2940	209.679812707378	150
7	2944	209.741968378663	151
7	2945	209.79991847154	152
7	2953	210.179812707378	153
7	2957	210.241968378663	154
7	2958	210.29991847154	155
7	2974	210.928292635957	156
7	2975	210.96373096324	157
7	2976	210.993514708574	158
7	2977	210.995833031445	159
7	2983	211.011340174225	160
7	2986	211.679812707378	161
7	2990	211.741968378663	162
7	2991	211.79991847154	163
7	3004	213.679812707378	164
7	3008	213.713994138364	165
7	3009	213.741968378663	166
7	3010	213.79991847154	167
7	3018	214.679812707378	168
7	3022	214.713994138364	169
7	3023	214.741968378663	170
7	3024	214.79991847154	171
7	3045	215.342368302781	172
7	3046	215.377806630064	173
7	3047	215.407590375398	174
7	3048	215.409908698269	175
7	3049	215.425415841049	176
7	3052	215.679812707378	177
7	3056	215.713994138364	178
7	3057	215.741968378663	179
7	3058	215.79991847154	180
7	3071	217.679812707378	181
7	3075	217.713994138364	182
7	3076	217.741968378663	183
7	3077	217.79991847154	184
7	3120	222.195605572635	185
7	3122	222.280571302711	186
7	3123	222.444624235991	187
7	3125	222.724477342965	188
7	3127	222.728994282055	189
7	3157	224.351335675863	190
7	3174	227.734960547566	191
7	3177	227.770691455017	192
7	3179	227.778175856732	193
7	3205	228.613211035832	194
7	3217	229.770691455017	195
7	3235	231.501117483548	196
7	3237	231.770691455017	197
7	3250	232.270691455017	198
7	3278	233.770691455017	199
7	3299	235.770691455017	200
7	3312	236.770691455017	201
7	3341	237.770691455017	202
7	3362	239.770691455017	203
7	3381	241.270691455017	204
7	3406	241.770691455017	205
7	3429	243.770691455017	206
7	3449	245.770691455017	207
7	3450	245.770691455017	208
7	3496	247.770691455017	209
7	3515	249.770691455017	210
8	27	5.021919424931	1
8	31	5.050570056058	2
8	36	5.070530129795	3
8	79	7.070530129795	4
8	116	9.070530129795	5
8	126	9.570530129795	6
8	165	11.070530129795	7
8	184	13.070530129795	8
8	198	14.070530129795	9
8	232	15.070530129795	10
8	251	17.070530129795	11
8	265	18.570530129795	12
8	295	19.070530129795	13
8	318	21.070530129795	14
8	338	23.070530129795	15
8	339	23.070530129795	16
8	383	25.070530129795	17
8	401	27.070530129795	18
8	409	27.570530129795	19
8	447	29.070530129795	20
8	466	31.070530129795	21
8	480	32.070530129795	22
8	514	33.070530129795	23
8	533	35.070530129795	24
8	726	47.070530129795	25
8	745	49.070530129795	26
8	759	50.070530129795	27
8	793	51.070530129795	28
8	812	53.070530129795	29
8	826	54.570530129795	30
8	856	55.070530129795	31
8	878	57.070530129795	32
8	897	59.070530129795	33
8	898	59.070530129795	34
8	942	61.070530129795	35
8	960	63.070530129795	36
8	968	63.570530129795	37
8	1006	65.070530129795	38
8	1024	67.070530129795	39
8	1038	68.070530129795	40
8	1087	72.249612896087	41
8	1092	72.321064422206	42
8	1112	74.321064422206	43
8	1143	76.321064422206	44
8	1154	76.821064422206	45
8	1199	78.321064422206	46
8	1217	80.321064422206	47
8	1230	81.321064422206	48
8	1264	82.321064422206	49
8	1283	84.321064422206	50
8	1297	85.821064422206	51
8	1326	86.321064422206	52
8	1350	88.321064422206	53
8	1370	90.321064422206	54
8	1371	90.321064422206	55
8	1417	92.321064422206	56
8	1436	94.321064422206	57
8	1445	94.821064422206	58
8	1484	96.321064422206	59
8	1503	98.321064422206	60
8	1517	99.321064422206	61
8	1551	100.321064422206	62
8	1570	102.321064422206	63
8	1584	103.821064422206	64
8	1613	104.321064422206	65
8	1637	106.321064422206	66
8	1656	108.321064422206	67
8	1657	108.321064422206	68
8	1701	110.321064422206	69
8	1719	112.321064422206	70
8	1727	112.821064422206	71
8	1765	114.321064422206	72
8	1783	116.321064422206	73
8	1796	117.321064422206	74
8	1829	118.321064422206	75
8	1847	120.321064422206	76
8	1970	128.321064422206	77
8	1988	130.321064422206	78
8	1996	130.821064422206	79
8	2034	132.321064422206	80
8	2052	134.321064422206	81
8	2065	135.321064422206	82
8	2098	136.321064422206	83
8	2116	138.321064422206	84
8	2129	139.821064422206	85
8	2152	140.321064422206	86
8	2180	142.321064422206	87
8	2238	148.354096931198	88
8	2295	154.202624672194	89
8	2300	154.337159710234	90
8	2317	156.337159710234	91
8	2339	158.337159710234	92
8	2360	160.337159710234	93
8	2381	162.337159710234	94
8	2437	168.375848319059	95
8	2437	168.375848319059	96
8	2437	168.375848319059	97
8	2437	168.375848319059	98
8	2499	174.358911098095	99
8	2506	174.493446136135	100
8	2531	176.493446136135	101
8	2549	178.493446136135	102
8	2582	180.493446136135	103
8	2612	182.493446136135	104
8	2626	183.493446136135	105
8	2647	184.493446136135	106
8	2669	186.493446136135	107
8	2697	187.993446136135	108
8	2711	188.493446136135	109
8	2754	193.417694342136	110
8	2759	193.511421270687	111
8	2813	199.550109879512	112
8	2813	199.550109879512	113
8	2813	199.550109879512	114
8	2813	199.550109879512	115
8	2872	205.588798488337	116
8	2872	205.588798488337	117
8	2872	205.588798488337	118
8	2872	205.588798488337	119
8	2877	205.6653834335	120
8	2877	205.6653834335	121
8	2877	205.6653834335	122
8	2877	205.6653834335	123
8	2909	207.6653834335	124
8	2909	207.6653834335	125
8	2909	207.6653834335	126
8	2909	207.6653834335	127
8	2938	209.6653834335	128
8	2938	209.6653834335	129
8	2938	209.6653834335	130
8	2938	209.6653834335	131
8	2951	210.1653834335	132
8	2951	210.1653834335	133
8	2951	210.1653834335	134
8	2951	210.1653834335	135
8	2958	210.29991847154	136
8	2958	210.29991847154	137
8	2958	210.29991847154	138
8	2958	210.29991847154	139
8	2958	210.29991847154	140
8	2984	211.6653834335	141
8	2984	211.6653834335	142
8	2984	211.6653834335	143
8	2984	211.6653834335	144
8	3002	213.6653834335	145
8	3002	213.6653834335	146
8	3002	213.6653834335	147
8	3002	213.6653834335	148
8	3016	214.6653834335	149
8	3016	214.6653834335	150
8	3016	214.6653834335	151
8	3016	214.6653834335	152
8	3022	214.713994138364	153
8	3022	214.713994138364	154
8	3022	214.713994138364	155
8	3022	214.713994138364	156
8	3022	214.713994138364	157
8	3050	215.6653834335	158
8	3050	215.6653834335	159
8	3050	215.6653834335	160
8	3050	215.6653834335	161
8	3069	217.6653834335	162
8	3069	217.6653834335	163
8	3069	217.6653834335	164
8	3069	217.6653834335	165
8	3341	237.770691455017	166
8	3362	239.770691455017	167
8	3381	241.270691455017	168
8	3406	241.770691455017	169
8	3429	243.770691455017	170
8	3449	245.770691455017	171
8	3450	245.770691455017	172
8	3496	247.770691455017	173
8	3515	249.770691455017	174
9	27	5.021919424931	1
9	31	5.050570056058	2
9	1087	72.249612896087	3
9	2238	148.354096931198	4
9	2295	154.202624672194	5
9	2499	174.358911098095	6
9	2754	193.417694342136	7
9	2958	210.29991847154	8
9	2958	210.29991847154	9
9	2958	210.29991847154	10
9	2958	210.29991847154	11
9	2958	210.29991847154	12
9	3022	214.713994138364	13
9	3022	214.713994138364	14
9	3022	214.713994138364	15
9	3022	214.713994138364	16
9	3022	214.713994138364	17
10	28	5.038650466168	1
10	37	5.087261171032	2
10	44	5.12983995924	3
10	80	7.087261171032	4
10	117	9.087261171032	5
10	127	9.587261171032	6
10	166	11.087261171032	7
10	185	13.087261171032	8
10	199	14.087261171032	9
10	233	15.087261171032	10
10	252	17.087261171032	11
10	266	18.587261171032	12
10	296	19.087261171032	13
10	319	21.087261171032	14
10	340	23.087261171032	15
10	341	23.087261171032	16
10	384	25.087261171032	17
10	402	27.087261171032	18
10	410	27.587261171032	19
10	448	29.087261171032	20
10	467	31.087261171032	21
10	481	32.087261171032	22
10	515	33.087261171032	23
10	534	35.087261171032	24
10	548	36.587261171032	25
10	576	37.087261171032	26
10	599	39.087261171032	27
10	619	41.087261171032	28
10	620	41.087261171032	29
10	663	43.087261171032	30
10	681	45.087261171032	31
10	689	45.587261171032	32
10	727	47.087261171032	33
10	746	49.087261171032	34
10	760	50.087261171032	35
10	794	51.087261171032	36
10	813	53.087261171032	37
10	827	54.587261171032	38
10	857	55.087261171032	39
10	879	57.087261171032	40
10	899	59.087261171032	41
10	900	59.087261171032	42
10	943	61.087261171032	43
10	961	63.087261171032	44
10	969	63.587261171032	45
10	1007	65.087261171032	46
10	1025	67.087261171032	47
10	1039	68.087261171032	48
10	1093	72.328882799269	49
10	1098	72.400334325388	50
10	1117	74.400334325388	51
10	1148	76.400334325388	52
10	1161	76.900334325388	53
10	1204	78.400334325388	54
10	1222	80.400334325388	55
10	1235	81.400334325388	56
10	1269	82.400334325388	57
10	1288	84.400334325388	58
10	1302	85.900334325388	59
10	1331	86.400334325388	60
10	1355	88.400334325388	61
10	1380	90.400334325388	62
10	1381	90.400334325388	63
10	1422	92.400334325388	64
10	1441	94.400334325388	65
10	1450	94.900334325388	66
10	1489	96.400334325388	67
10	1508	98.400334325388	68
10	1522	99.400334325388	69
10	1556	100.400334325388	70
10	1575	102.400334325388	71
10	1589	103.900334325388	72
10	1618	104.400334325388	73
10	1641	106.400334325388	74
10	1664	108.400334325388	75
10	1665	108.400334325388	76
10	1705	110.400334325388	77
10	1723	112.400334325388	78
10	1731	112.900334325388	79
10	1769	114.400334325388	80
10	1787	116.400334325388	81
10	1800	117.400334325388	82
10	1833	118.400334325388	83
10	1851	120.400334325388	84
10	1863	121.900334325388	85
10	1890	122.400334325388	86
10	1912	124.400334325388	87
10	1933	126.400334325388	88
10	1934	126.400334325388	89
10	1974	128.400334325388	90
10	1992	130.400334325388	91
10	2000	130.900334325388	92
10	2038	132.400334325388	93
10	2056	134.400334325388	94
10	2069	135.400334325388	95
10	2102	136.400334325388	96
10	2120	138.400334325388	97
10	2133	139.900334325388	98
10	2161	140.400334325388	99
10	2184	142.400334325388	100
10	2220	147.054420249593	101
10	2239	148.383397104424	102
10	2278	153.803538646182	103
10	2296	154.23192484542	104
10	2301	154.36645988346	105
10	2318	156.36645988346	106
10	2340	158.36645988346	107
10	2362	160.36645988346	108
10	2382	162.36645988346	109
10	2415	166.465486431305	110
10	2424	166.934845575784	111
10	2440	168.405148492285	112
10	2497	174.289407140732	113
10	2500	174.388211271321	114
10	2502	174.403329109781	115
10	2504	174.423942178772	116
10	2507	174.522746309361	117
10	2508	174.537864147821	118
10	2520	175.391406266119	119
10	2529	176.423942178772	120
10	2532	176.522746309361	121
10	2533	176.537864147821	122
10	2547	178.423942178772	123
10	2550	178.522746309361	124
10	2551	178.537864147821	125
10	2552	178.544211293334	126
10	2573	180.160560488904	127
10	2580	180.423942178772	128
10	2584	180.522746309361	129
10	2586	180.537864147821	130
10	2587	180.544211293334	131
10	2592	180.750982285153	132
10	2594	180.856317121438	133
10	2601	181.148192482404	134
10	2610	182.423942178772	135
10	2613	182.522746309361	136
10	2614	182.537864147821	137
10	2615	182.544211293334	138
10	2624	183.423942178772	139
10	2627	183.522746309361	140
10	2628	183.537864147821	141
10	2629	183.544211293334	142
10	2644	184.423942178772	143
10	2646	184.466155581165	144
10	2648	184.522746309361	145
10	2649	184.537864147821	146
10	2650	184.544211293334	147
10	2666	186.423942178772	148
10	2670	186.522746309361	149
10	2671	186.537864147821	150
10	2672	186.544211293334	151
10	2683	187.120216063981	152
10	2690	187.622470676064	153
10	2691	187.689185285083	154
10	2695	187.923942178772	155
10	2703	188.022746309361	156
10	2704	188.037864147821	157
10	2705	188.044211293334	158
10	2709	188.423942178772	159
10	2712	188.522746309361	160
10	2713	188.537864147821	161
10	2714	188.544211293334	162
10	2726	189.58178503988	163
10	2744	192.852294091134	164
10	2755	193.434425383373	165
10	2760	193.528152311924	166
10	2778	194.079871639058	167
10	2802	197.643440466622	168
10	2816	199.579410052738	169
10	2845	201.238432601103	170
10	2875	205.618098661563	171
10	2880	205.694683606726	172
10	2913	207.694683606726	173
10	2925	208.301657161011	174
10	2942	209.694683606726	175
10	2955	210.194683606726	176
10	2988	211.694683606726	177
10	3006	213.694683606726	178
10	3020	214.694683606726	179
10	3054	215.694683606726	180
10	3073	217.694683606726	181
10	3129	222.741208384202	182
10	3133	222.808264185237	183
10	3175	227.751691588803	184
10	3181	227.787422496254	185
10	3186	227.857445759914	186
10	3202	228.435237435376	187
10	3218	229.787422496254	188
10	3238	231.787422496254	189
10	3251	232.287422496254	190
10	3279	233.787422496254	191
10	3300	235.787422496254	192
10	3313	236.787422496254	193
10	3342	237.787422496254	194
10	3363	239.787422496254	195
10	3382	241.287422496254	196
10	3407	241.787422496254	197
10	3430	243.787422496254	198
10	3451	245.787422496254	199
10	3452	245.787422496254	200
10	3497	247.787422496254	201
10	3516	249.787422496254	202
11	28	5.038650466168	1
11	37	5.087261171032	2
11	44	5.12983995924	3
11	80	7.087261171032	4
11	117	9.087261171032	5
11	127	9.587261171032	6
11	166	11.087261171032	7
11	185	13.087261171032	8
11	199	14.087261171032	9
11	233	15.087261171032	10
11	252	17.087261171032	11
11	266	18.587261171032	12
11	296	19.087261171032	13
11	319	21.087261171032	14
11	340	23.087261171032	15
11	341	23.087261171032	16
11	384	25.087261171032	17
11	402	27.087261171032	18
11	410	27.587261171032	19
11	448	29.087261171032	20
11	467	31.087261171032	21
11	481	32.087261171032	22
11	515	33.087261171032	23
11	534	35.087261171032	24
11	548	36.587261171032	25
11	576	37.087261171032	26
11	599	39.087261171032	27
11	619	41.087261171032	28
11	620	41.087261171032	29
11	663	43.087261171032	30
11	681	45.087261171032	31
11	689	45.587261171032	32
11	727	47.087261171032	33
11	746	49.087261171032	34
11	760	50.087261171032	35
11	794	51.087261171032	36
11	813	53.087261171032	37
11	827	54.587261171032	38
11	1025	67.087261171032	39
11	1039	68.087261171032	40
11	1093	72.328882799269	41
11	1098	72.400334325388	42
11	1117	74.400334325388	43
11	1148	76.400334325388	44
11	1161	76.900334325388	45
11	1204	78.400334325388	46
11	1222	80.400334325388	47
11	1235	81.400334325388	48
11	1269	82.400334325388	49
11	1288	84.400334325388	50
11	1302	85.900334325388	51
11	1331	86.400334325388	52
11	1355	88.400334325388	53
11	1380	90.400334325388	54
11	1381	90.400334325388	55
11	1422	92.400334325388	56
11	1441	94.400334325388	57
11	1450	94.900334325388	58
11	1489	96.400334325388	59
11	1508	98.400334325388	60
11	1522	99.400334325388	61
11	1556	100.400334325388	62
11	1575	102.400334325388	63
11	1589	103.900334325388	64
11	1618	104.400334325388	65
11	1641	106.400334325388	66
11	1664	108.400334325388	67
11	1665	108.400334325388	68
11	1705	110.400334325388	69
11	1723	112.400334325388	70
11	1731	112.900334325388	71
11	1769	114.400334325388	72
11	1787	116.400334325388	73
11	1800	117.400334325388	74
11	1833	118.400334325388	75
11	1851	120.400334325388	76
11	1863	121.900334325388	77
11	1890	122.400334325388	78
11	1912	124.400334325388	79
11	1933	126.400334325388	80
11	1934	126.400334325388	81
11	1974	128.400334325388	82
11	1992	130.400334325388	83
11	2000	130.900334325388	84
11	2038	132.400334325388	85
11	2056	134.400334325388	86
11	2069	135.400334325388	87
11	2102	136.400334325388	88
11	2120	138.400334325388	89
11	2133	139.900334325388	90
11	2161	140.400334325388	91
11	2184	142.400334325388	92
11	2233	148.248862066384	93
11	2233	148.248862066384	94
11	2233	148.248862066384	95
11	2233	148.248862066384	96
11	2289	154.09738980738	97
11	2289	154.09738980738	98
11	2289	154.09738980738	99
11	2289	154.09738980738	100
11	2296	154.23192484542	101
11	2296	154.23192484542	102
11	2296	154.23192484542	103
11	2296	154.23192484542	104
11	2313	156.23192484542	105
11	2313	156.23192484542	106
11	2313	156.23192484542	107
11	2313	156.23192484542	108
11	2335	158.23192484542	109
11	2335	158.23192484542	110
11	2335	158.23192484542	111
11	2335	158.23192484542	112
11	2355	160.23192484542	113
11	2355	160.23192484542	114
11	2355	160.23192484542	115
11	2355	160.23192484542	116
11	2377	162.23192484542	117
11	2377	162.23192484542	118
11	2377	162.23192484542	119
11	2377	162.23192484542	120
11	2440	168.405148492285	121
11	2494	174.253676233281	122
11	2494	174.253676233281	123
11	2494	174.253676233281	124
11	2494	174.253676233281	125
11	2500	174.388211271321	126
11	2500	174.388211271321	127
11	2500	174.388211271321	128
11	2500	174.388211271321	129
11	2526	176.388211271321	130
11	2526	176.388211271321	131
11	2526	176.388211271321	132
11	2526	176.388211271321	133
11	2544	178.388211271321	134
11	2544	178.388211271321	135
11	2544	178.388211271321	136
11	2544	178.388211271321	137
11	2577	180.388211271321	138
11	2577	180.388211271321	139
11	2577	180.388211271321	140
11	2577	180.388211271321	141
11	2607	182.388211271321	142
11	2607	182.388211271321	143
11	2607	182.388211271321	144
11	2607	182.388211271321	145
11	2621	183.388211271321	146
11	2621	183.388211271321	147
11	2621	183.388211271321	148
11	2621	183.388211271321	149
11	2641	184.388211271321	150
11	2641	184.388211271321	151
11	2641	184.388211271321	152
11	2641	184.388211271321	153
11	2663	186.388211271321	154
11	2663	186.388211271321	155
11	2663	186.388211271321	156
11	2663	186.388211271321	157
11	2692	187.888211271321	158
11	2692	187.888211271321	159
11	2692	187.888211271321	160
11	2692	187.888211271321	161
11	2706	188.388211271321	162
11	2706	188.388211271321	163
11	2706	188.388211271321	164
11	2706	188.388211271321	165
11	2816	199.579410052738	166
11	2875	205.618098661563	167
11	2880	205.694683606726	168
11	2913	207.694683606726	169
11	2942	209.694683606726	170
11	2955	210.194683606726	171
11	2988	211.694683606726	172
11	3006	213.694683606726	173
11	3020	214.694683606726	174
11	3054	215.694683606726	175
11	3073	217.694683606726	176
11	3129	222.741208384202	177
11	3133	222.808264185237	178
11	3175	227.751691588803	179
11	3181	227.787422496254	180
11	3186	227.857445759914	181
11	3218	229.787422496254	182
11	3238	231.787422496254	183
11	3251	232.287422496254	184
11	3279	233.787422496254	185
11	3300	235.787422496254	186
11	3313	236.787422496254	187
11	3342	237.787422496254	188
11	3363	239.787422496254	189
11	3382	241.287422496254	190
11	3407	241.787422496254	191
11	3430	243.787422496254	192
11	3451	245.787422496254	193
11	3452	245.787422496254	194
11	3497	247.787422496254	195
11	3516	249.787422496254	196
12	28	5.038650466168	1
12	44	5.12983995924	2
12	1093	72.328882799269	3
12	2440	168.405148492285	4
12	2816	199.579410052738	5
12	2875	205.618098661563	6
12	3129	222.741208384202	7
12	3133	222.808264185237	8
12	3175	227.751691588803	9
12	3186	227.857445759914	10
13	29	5.046214112052	1
13	32	5.059093909465	2
13	33	5.060220235521	3
13	39	5.094824816916	4
13	40	5.104210133152	5
13	41	5.107704614329	6
13	46	5.152820838016	7
13	47	5.161470796009	8
13	51	5.210081500873	9
13	81	7.094824816916	10
13	82	7.107704614329	11
13	85	7.152820838016	12
13	86	7.165667340729	13
13	88	7.210081500873	14
13	90	7.236845461375	15
13	91	7.424437982654	16
13	107	8.946878788148	17
13	118	9.094824816916	18
13	119	9.107704614329	19
13	121	9.152820838016	20
13	122	9.153845093486	21
13	124	9.210081500873	22
13	128	9.594824816916	23
13	129	9.607704614329	24
13	131	9.652820838016	25
13	138	9.710081500873	26
13	154	10.064438400906	27
13	155	10.099876728189	28
13	156	10.129660473523	29
13	157	10.131978796394	30
13	158	10.147485939174	31
13	167	11.094824816916	32
13	168	11.107704614329	33
13	170	11.152820838016	34
13	172	11.210081500873	35
13	186	13.094824816916	36
13	187	13.107704614329	37
13	189	13.152820838016	38
13	191	13.210081500873	39
13	200	14.094824816916	40
13	201	14.107704614329	41
13	203	14.152820838016	42
13	210	14.210081500873	43
13	221	14.564438400906	44
13	222	14.599876728189	45
13	223	14.629660473523	46
13	224	14.631978796394	47
13	225	14.647485939174	48
13	234	15.094824816916	49
13	235	15.107704614329	50
13	237	15.152820838016	51
13	239	15.210081500873	52
13	253	17.094824816916	53
13	254	17.107704614329	54
13	256	17.152820838016	55
13	258	17.210081500873	56
13	267	18.594824816916	57
13	268	18.607704614329	58
13	270	18.652820838016	59
13	277	18.710081500873	60
13	294	19.064438400906	61
13	297	19.094824816916	62
13	298	19.099876728189	63
13	299	19.107704614329	64
13	301	19.129660473523	65
13	302	19.131978796394	66
13	303	19.147485939174	67
13	304	19.152820838016	68
13	306	19.210081500873	69
13	320	21.094824816916	70
13	321	21.107704614329	71
13	323	21.152820838016	72
13	325	21.210081500873	73
13	342	23.094824816916	74
13	343	23.094824816916	75
13	344	23.107704614329	76
13	345	23.107704614329	77
13	355	23.210081500873	78
13	356	23.210081500873	79
13	367	23.564438400906	80
13	368	23.599876728189	81
13	369	23.629660473523	82
13	370	23.631978796394	83
13	371	23.647485939174	84
13	385	25.094824816916	85
13	386	25.107704614329	86
13	389	25.210081500873	87
13	403	27.094824816916	88
13	404	27.107704614329	89
13	407	27.210081500873	90
13	411	27.594824816916	91
13	412	27.607704614329	92
13	420	27.710081500873	93
13	436	28.064438400906	94
13	437	28.099876728189	95
13	438	28.129660473523	96
13	439	28.131978796394	97
13	440	28.147485939174	98
13	449	29.094824816916	99
13	450	29.107704614329	100
13	452	29.152820838016	101
13	454	29.210081500873	102
13	468	31.094824816916	103
13	469	31.107704614329	104
13	471	31.152820838016	105
13	473	31.210081500873	106
13	482	32.094824816916	107
13	483	32.107704614329	108
13	485	32.152820838016	109
13	492	32.210081500873	110
13	503	32.564438400906	111
13	504	32.599876728189	112
13	505	32.629660473523	113
13	506	32.631978796394	114
13	507	32.647485939174	115
13	516	33.094824816916	116
13	517	33.107704614329	117
13	519	33.152820838016	118
13	521	33.210081500873	119
13	535	35.094824816916	120
13	536	35.107704614329	121
13	538	35.152820838016	122
13	540	35.210081500873	123
13	549	36.594824816916	124
13	551	36.652820838016	125
13	553	36.710081500873	126
13	577	37.094824816916	127
13	578	37.109554624593	128
13	580	37.144992951876	129
13	581	37.152820838016	130
13	582	37.17477669721	131
13	583	37.177095020081	132
13	584	37.192602162861	133
13	586	37.210081500873	134
13	600	39.094824816916	135
13	602	39.152820838016	136
13	604	39.210081500873	137
13	621	41.094824816916	138
13	622	41.094824816916	139
13	625	41.152820838016	140
13	626	41.152820838016	141
13	629	41.210081500873	142
13	630	41.210081500873	143
13	646	41.609554624593	144
13	647	41.644992951876	145
13	648	41.67477669721	146
13	649	41.677095020081	147
13	650	41.692602162861	148
13	664	43.094824816916	149
13	666	43.152820838016	150
13	668	43.210081500873	151
13	682	45.094824816916	152
13	684	45.152820838016	153
13	686	45.210081500873	154
13	690	45.594824816916	155
13	692	45.652820838016	156
13	694	45.710081500873	157
13	715	46.109554624593	158
13	716	46.144992951876	159
13	717	46.17477669721	160
13	718	46.177095020081	161
13	719	46.192602162861	162
13	728	47.094824816916	163
13	729	47.107704614329	164
13	731	47.152820838016	165
13	733	47.210081500873	166
13	747	49.094824816916	167
13	748	49.107704614329	168
13	750	49.152820838016	169
13	752	49.210081500873	170
13	761	50.094824816916	171
13	762	50.107704614329	172
13	764	50.152820838016	173
13	771	50.210081500873	174
13	782	50.564438400906	175
13	783	50.599876728189	176
13	784	50.629660473523	177
13	785	50.631978796394	178
13	786	50.647485939174	179
13	795	51.094824816916	180
13	796	51.107704614329	181
13	798	51.152820838016	182
13	800	51.210081500873	183
13	814	53.094824816916	184
13	815	53.107704614329	185
13	817	53.152820838016	186
13	819	53.210081500873	187
13	828	54.594824816916	188
13	829	54.607704614329	189
13	831	54.652820838016	190
13	838	54.710081500873	191
13	855	55.064438400906	192
13	858	55.099876728189	193
13	859	55.107704614329	194
13	861	55.129660473523	195
13	862	55.131978796394	196
13	863	55.147485939174	197
13	864	55.152820838016	198
13	866	55.210081500873	199
13	880	57.107704614329	200
13	882	57.152820838016	201
13	884	57.210081500873	202
13	901	59.107704614329	203
13	902	59.107704614329	204
13	905	59.152820838016	205
13	906	59.152820838016	206
13	909	59.210081500873	207
13	910	59.210081500873	208
13	926	59.609554624593	209
13	927	59.644992951876	210
13	928	59.67477669721	211
13	929	59.677095020081	212
13	930	59.692602162861	213
13	944	61.107704614329	214
13	946	61.152820838016	215
13	948	61.210081500873	216
13	962	63.107704614329	217
13	964	63.152820838016	218
13	966	63.210081500873	219
13	970	63.607704614329	220
13	972	63.652820838016	221
13	974	63.710081500873	222
13	995	64.109554624593	223
13	996	64.144992951876	224
13	997	64.17477669721	225
13	998	64.177095020081	226
13	999	64.192602162861	227
13	1008	65.107704614329	228
13	1010	65.152820838016	229
13	1012	65.210081500873	230
13	1026	67.094824816916	231
13	1027	67.107704614329	232
13	1029	67.152820838016	233
13	1031	67.210081500873	234
13	1040	68.094824816916	235
13	1041	68.107704614329	236
13	1043	68.152820838016	237
13	1050	68.210081500873	238
13	1061	68.564438400906	239
13	1062	68.599876728189	240
13	1063	68.629660473523	241
13	1064	68.631978796394	242
13	1065	68.647485939174	243
13	1088	72.25926307555	244
13	1094	72.330714601669	245
13	1113	74.330714601669	246
13	1124	74.895719811566	247
13	1132	75.106256990054	248
13	1144	76.330714601669	249
13	1152	76.661532154931	250
13	1155	76.830714601669	251
13	1200	78.330714601669	252
13	1218	80.330714601669	253
13	1231	81.330714601669	254
13	1265	82.330714601669	255
13	1284	84.330714601669	256
13	1298	85.830714601669	257
13	1327	86.330714601669	258
13	1351	88.330714601669	259
13	1372	90.330714601669	260
13	1373	90.330714601669	261
13	1418	92.330714601669	262
13	1437	94.330714601669	263
13	1446	94.830714601669	264
13	1485	96.330714601669	265
13	1504	98.330714601669	266
13	1518	99.330714601669	267
13	1552	100.330714601669	268
13	1571	102.330714601669	269
13	1585	103.830714601669	270
13	1614	104.330714601669	271
13	1638	106.330714601669	272
13	1658	108.330714601669	273
13	1659	108.330714601669	274
13	1702	110.330714601669	275
13	1720	112.330714601669	276
13	1728	112.830714601669	277
13	1766	114.330714601669	278
13	1784	116.330714601669	279
13	1797	117.330714601669	280
13	1830	118.330714601669	281
13	1848	120.330714601669	282
13	1861	121.830714601669	283
13	1883	122.330714601669	284
13	1910	124.330714601669	285
13	1929	126.330714601669	286
13	1930	126.330714601669	287
13	1971	128.330714601669	288
13	1989	130.330714601669	289
13	1997	130.830714601669	290
13	2035	132.330714601669	291
13	2053	134.330714601669	292
13	2066	135.330714601669	293
13	2099	136.330714601669	294
13	2117	138.330714601669	295
13	2130	139.830714601669	296
13	2154	140.330714601669	297
13	2181	142.330714601669	298
13	2234	148.256425712268	299
13	2290	154.098568296339	300
13	2291	154.104953453264	301
13	2297	154.239488491304	302
13	2314	156.239488491304	303
13	2329	157.33628949535	304
13	2336	158.239488491304	305
13	2356	160.239488491304	306
13	2378	162.239488491304	307
13	2396	164.701369544653	308
13	2431	167.047124683659	309
13	2441	168.413022803593	310
13	2466	172.763024971395	311
13	2495	174.261239879165	312
13	2501	174.395774917205	313
13	2511	174.819988217973	314
13	2527	176.395774917205	315
13	2545	178.395774917205	316
13	2578	180.395774917205	317
13	2608	182.395774917205	318
13	2622	183.395774917205	319
13	2642	184.395774917205	320
13	2664	186.395774917205	321
13	2693	187.895774917205	322
13	2707	188.395774917205	323
13	2756	193.45486882667	324
13	2758	193.499985050357	325
13	2762	193.548595755221	326
13	2765	193.593711978908	327
13	2784	194.625549490485	328
13	2817	199.587284364046	329
13	2834	200.815724976598	330
13	2849	201.79574224405	331
13	2876	205.625972972871	332
13	2881	205.702557918034	333
13	2915	207.702557918034	334
13	2943	209.702557918034	335
13	2956	210.202557918034	336
13	2989	211.702557918034	337
13	3007	213.702557918034	338
13	3021	214.702557918034	339
13	3055	215.702557918034	340
13	3074	217.702557918034	341
13	3103	221.615585514838	342
13	3128	222.738644461518	343
13	3130	222.748772030086	344
13	3135	222.864028714043	345
13	3148	223.753490152415	346
13	3176	227.759255234687	347
13	3182	227.787826036195	348
13	3183	227.794986142138	349
13	3188	227.874511918644	350
13	3190	227.910242826095	351
13	3209	228.860838231048	352
13	3215	229.002788965591	353
13	3219	229.794986142138	354
13	3222	229.910242826095	355
13	3239	231.794986142138	356
13	3241	231.852982163238	357
13	3243	231.910242826095	358
13	3252	232.294986142138	359
13	3254	232.352982163238	360
13	3256	232.410242826095	361
13	3267	232.932198685289	362
13	3268	232.93451700816	363
13	3276	233.368020792306	364
13	3280	233.794986142138	365
13	3282	233.852982163238	366
13	3284	233.910242826095	367
13	3292	234.88778657035	368
13	3301	235.794986142138	369
13	3303	235.852982163238	370
13	3305	235.910242826095	371
13	3314	236.794986142138	372
13	3316	236.852982163238	373
13	3318	236.910242826095	374
13	3336	237.366976612672	375
13	3337	237.432198685289	376
13	3338	237.43451700816	377
13	3339	237.45002415094	378
13	3343	237.794986142138	379
13	3344	237.807865939551	380
13	3346	237.852982163238	381
13	3360	239.504708711687	382
13	3364	239.794986142138	383
13	3365	239.807865939551	384
13	3367	239.852982163238	385
13	3369	239.910242826095	386
13	3383	241.294986142138	387
13	3384	241.307865939551	388
13	3386	241.352982163238	389
13	3393	241.410242826095	390
13	3405	241.764599726128	391
13	3408	241.794986142138	392
13	3409	241.800038053411	393
13	3410	241.807865939551	394
13	3412	241.829821798745	395
13	3413	241.832140121616	396
13	3414	241.847647264396	397
13	3415	241.852982163238	398
13	3417	241.910242826095	399
13	3431	243.794986142138	400
13	3432	243.807865939551	401
13	3434	243.852982163238	402
13	3436	243.910242826095	403
13	3453	245.794986142138	404
13	3454	245.794986142138	405
13	3455	245.807865939551	406
13	3456	245.807865939551	407
13	3459	245.852982163238	408
13	3460	245.852982163238	409
13	3468	245.910242826095	410
13	3469	245.910242826095	411
13	3485	246.264599726128	412
13	3486	246.300038053411	413
13	3487	246.329821798745	414
13	3488	246.332140121616	415
13	3489	246.347647264396	416
13	3498	247.794986142138	417
13	3499	247.807865939551	418
13	3501	247.852982163238	419
13	3503	247.910242826095	420
13	3517	249.794986142138	421
13	3518	249.807865939551	422
13	3520	249.852982163238	423
13	3522	249.910242826095	424
14	30	5.049181574677	1
14	30	5.049181574677	2
14	30	5.049181574677	3
14	30	5.049181574677	4
14	45	5.150432135165	5
14	48	5.199042840029	6
14	87	7.199042840029	7
14	123	9.199042840029	8
14	137	9.699042840029	9
14	171	11.199042840029	10
14	190	13.199042840029	11
14	209	14.199042840029	12
14	238	15.199042840029	13
14	257	17.199042840029	14
14	276	18.699042840029	15
14	305	19.199042840029	16
14	324	21.199042840029	17
14	353	23.199042840029	18
14	354	23.199042840029	19
14	388	25.199042840029	20
14	406	27.199042840029	21
14	419	27.699042840029	22
14	453	29.199042840029	23
14	472	31.199042840029	24
14	491	32.199042840029	25
14	520	33.199042840029	26
14	539	35.199042840029	27
14	552	36.699042840029	28
14	585	37.199042840029	29
14	603	39.199042840029	30
14	627	41.199042840029	31
14	628	41.199042840029	32
14	667	43.199042840029	33
14	685	45.199042840029	34
14	693	45.699042840029	35
14	732	47.199042840029	36
14	751	49.199042840029	37
14	770	50.199042840029	38
14	799	51.199042840029	39
14	818	53.199042840029	40
14	837	54.699042840029	41
14	865	55.199042840029	42
14	883	57.199042840029	43
14	907	59.199042840029	44
14	908	59.199042840029	45
14	947	61.199042840029	46
14	965	63.199042840029	47
14	973	63.699042840029	48
14	1011	65.199042840029	49
14	1030	67.199042840029	50
14	1049	68.199042840029	51
14	1086	72.248224414706	52
14	1086	72.248224414706	53
14	1086	72.248224414706	54
14	1086	72.248224414706	55
14	1091	72.319675940825	56
14	1091	72.319675940825	57
14	1091	72.319675940825	58
14	1091	72.319675940825	59
14	1111	74.319675940825	60
14	1111	74.319675940825	61
14	1111	74.319675940825	62
14	1111	74.319675940825	63
14	1142	76.319675940825	64
14	1142	76.319675940825	65
14	1142	76.319675940825	66
14	1142	76.319675940825	67
14	1153	76.819675940825	68
14	1153	76.819675940825	69
14	1153	76.819675940825	70
14	1153	76.819675940825	71
14	1160	76.891127466944	72
14	1160	76.891127466944	73
14	1160	76.891127466944	74
14	1160	76.891127466944	75
14	1160	76.891127466944	76
14	1160	76.891127466944	77
14	1198	78.319675940825	78
14	1198	78.319675940825	79
14	1198	78.319675940825	80
14	1198	78.319675940825	81
14	1216	80.319675940825	82
14	1216	80.319675940825	83
14	1216	80.319675940825	84
14	1216	80.319675940825	85
14	1229	81.319675940825	86
14	1229	81.319675940825	87
14	1229	81.319675940825	88
14	1229	81.319675940825	89
14	1234	81.391127466944	90
14	1234	81.391127466944	91
14	1234	81.391127466944	92
14	1234	81.391127466944	93
14	1234	81.391127466944	94
14	1263	82.319675940825	95
14	1263	82.319675940825	96
14	1263	82.319675940825	97
14	1263	82.319675940825	98
14	1282	84.319675940825	99
14	1282	84.319675940825	100
14	1282	84.319675940825	101
14	1282	84.319675940825	102
14	1296	85.819675940825	103
14	1296	85.819675940825	104
14	1296	85.819675940825	105
14	1296	85.819675940825	106
14	1301	85.891127466944	107
14	1301	85.891127466944	108
14	1301	85.891127466944	109
14	1301	85.891127466944	110
14	1301	85.891127466944	111
14	1325	86.319675940825	112
14	1325	86.319675940825	113
14	1325	86.319675940825	114
14	1325	86.319675940825	115
14	1349	88.319675940825	116
14	1349	88.319675940825	117
14	1349	88.319675940825	118
14	1349	88.319675940825	119
14	1368	90.319675940825	120
14	1368	90.319675940825	121
14	1368	90.319675940825	122
14	1368	90.319675940825	123
14	1369	90.319675940825	124
14	1369	90.319675940825	125
14	1369	90.319675940825	126
14	1369	90.319675940825	127
14	1378	90.391127466944	128
14	1378	90.391127466944	129
14	1378	90.391127466944	130
14	1378	90.391127466944	131
14	1378	90.391127466944	132
14	1416	92.319675940825	133
14	1416	92.319675940825	134
14	1416	92.319675940825	135
14	1416	92.319675940825	136
14	1435	94.319675940825	137
14	1435	94.319675940825	138
14	1435	94.319675940825	139
14	1435	94.319675940825	140
14	1444	94.819675940825	141
14	1444	94.819675940825	142
14	1444	94.819675940825	143
14	1444	94.819675940825	144
14	1449	94.891127466944	145
14	1449	94.891127466944	146
14	1449	94.891127466944	147
14	1449	94.891127466944	148
14	1449	94.891127466944	149
14	1483	96.319675940825	150
14	1483	96.319675940825	151
14	1483	96.319675940825	152
14	1483	96.319675940825	153
14	1502	98.319675940825	154
14	1502	98.319675940825	155
14	1502	98.319675940825	156
14	1502	98.319675940825	157
14	1516	99.319675940825	158
14	1516	99.319675940825	159
14	1516	99.319675940825	160
14	1516	99.319675940825	161
14	1521	99.391127466944	162
14	1521	99.391127466944	163
14	1521	99.391127466944	164
14	1521	99.391127466944	165
14	1521	99.391127466944	166
14	1550	100.319675940825	167
14	1550	100.319675940825	168
14	1550	100.319675940825	169
14	1550	100.319675940825	170
14	1569	102.319675940825	171
14	1569	102.319675940825	172
14	1569	102.319675940825	173
14	1569	102.319675940825	174
14	1583	103.819675940825	175
14	1583	103.819675940825	176
14	1583	103.819675940825	177
14	1583	103.819675940825	178
14	1588	103.891127466944	179
14	1588	103.891127466944	180
14	1588	103.891127466944	181
14	1588	103.891127466944	182
14	1588	103.891127466944	183
14	1612	104.319675940825	184
14	1612	104.319675940825	185
14	1612	104.319675940825	186
14	1612	104.319675940825	187
14	1636	106.319675940825	188
14	1636	106.319675940825	189
14	1636	106.319675940825	190
14	1636	106.319675940825	191
14	1654	108.319675940825	192
14	1654	108.319675940825	193
14	1654	108.319675940825	194
14	1654	108.319675940825	195
14	1655	108.319675940825	196
14	1655	108.319675940825	197
14	1655	108.319675940825	198
14	1655	108.319675940825	199
14	1666	108.470663532233	200
14	1666	108.470663532233	201
14	1666	108.470663532233	202
14	1666	108.470663532233	203
14	1666	108.470663532233	204
14	1700	110.319675940825	205
14	1700	110.319675940825	206
14	1700	110.319675940825	207
14	1700	110.319675940825	208
14	1718	112.319675940825	209
14	1718	112.319675940825	210
14	1718	112.319675940825	211
14	1718	112.319675940825	212
14	1726	112.819675940825	213
14	1726	112.819675940825	214
14	1726	112.819675940825	215
14	1726	112.819675940825	216
14	1732	112.970663532233	217
14	1732	112.970663532233	218
14	1732	112.970663532233	219
14	1732	112.970663532233	220
14	1732	112.970663532233	221
14	1764	114.319675940825	222
14	1764	114.319675940825	223
14	1764	114.319675940825	224
14	1764	114.319675940825	225
14	1782	116.319675940825	226
14	1782	116.319675940825	227
14	1782	116.319675940825	228
14	1782	116.319675940825	229
14	1795	117.319675940825	230
14	1795	117.319675940825	231
14	1795	117.319675940825	232
14	1795	117.319675940825	233
14	1801	117.470663532233	234
14	1801	117.470663532233	235
14	1801	117.470663532233	236
14	1801	117.470663532233	237
14	1801	117.470663532233	238
14	1828	118.319675940825	239
14	1828	118.319675940825	240
14	1828	118.319675940825	241
14	1828	118.319675940825	242
14	1846	120.319675940825	243
14	1846	120.319675940825	244
14	1846	120.319675940825	245
14	1846	120.319675940825	246
14	1859	121.819675940825	247
14	1859	121.819675940825	248
14	1859	121.819675940825	249
14	1859	121.819675940825	250
14	1865	121.975675962838	251
14	1865	121.975675962838	252
14	1865	121.975675962838	253
14	1865	121.975675962838	254
14	1865	121.975675962838	255
14	1881	122.319675940825	256
14	1881	122.319675940825	257
14	1881	122.319675940825	258
14	1881	122.319675940825	259
14	1908	124.319675940825	260
14	1908	124.319675940825	261
14	1908	124.319675940825	262
14	1908	124.319675940825	263
14	1925	126.319675940825	264
14	1925	126.319675940825	265
14	1925	126.319675940825	266
14	1925	126.319675940825	267
14	1926	126.319675940825	268
14	1926	126.319675940825	269
14	1926	126.319675940825	270
14	1926	126.319675940825	271
14	1937	126.475675962838	272
14	1937	126.475675962838	273
14	1937	126.475675962838	274
14	1937	126.475675962838	275
14	1937	126.475675962838	276
14	1969	128.319675940825	277
14	1969	128.319675940825	278
14	1969	128.319675940825	279
14	1969	128.319675940825	280
14	1987	130.319675940825	281
14	1987	130.319675940825	282
14	1987	130.319675940825	283
14	1987	130.319675940825	284
14	1995	130.819675940825	285
14	1995	130.819675940825	286
14	1995	130.819675940825	287
14	1995	130.819675940825	288
14	2001	130.970663532233	289
14	2001	130.970663532233	290
14	2001	130.970663532233	291
14	2001	130.970663532233	292
14	2001	130.970663532233	293
14	2033	132.319675940825	294
14	2033	132.319675940825	295
14	2033	132.319675940825	296
14	2033	132.319675940825	297
14	2051	134.319675940825	298
14	2051	134.319675940825	299
14	2051	134.319675940825	300
14	2051	134.319675940825	301
14	2064	135.319675940825	302
14	2064	135.319675940825	303
14	2064	135.319675940825	304
14	2064	135.319675940825	305
14	2070	135.470663532233	306
14	2070	135.470663532233	307
14	2070	135.470663532233	308
14	2070	135.470663532233	309
14	2070	135.470663532233	310
14	2097	136.319675940825	311
14	2097	136.319675940825	312
14	2097	136.319675940825	313
14	2097	136.319675940825	314
14	2115	138.319675940825	315
14	2115	138.319675940825	316
14	2115	138.319675940825	317
14	2115	138.319675940825	318
14	2128	139.819675940825	319
14	2128	139.819675940825	320
14	2128	139.819675940825	321
14	2128	139.819675940825	322
14	2134	139.970663532233	323
14	2134	139.970663532233	324
14	2134	139.970663532233	325
14	2134	139.970663532233	326
14	2134	139.970663532233	327
14	2151	140.319675940825	328
14	2151	140.319675940825	329
14	2151	140.319675940825	330
14	2151	140.319675940825	331
14	2179	142.319675940825	332
14	2179	142.319675940825	333
14	2179	142.319675940825	334
14	2179	142.319675940825	335
14	2548	178.463552908771	336
14	2581	180.463552908771	337
14	2611	182.463552908771	338
14	2625	183.463552908771	339
14	2645	184.463552908771	340
14	2668	186.463552908771	341
14	2696	187.963552908771	342
14	2710	188.463552908771	343
14	2910	207.678424225997	344
14	2939	209.678424225997	345
14	2952	210.178424225997	346
14	2985	211.678424225997	347
14	3003	213.678424225997	348
14	3017	214.678424225997	349
14	3051	215.678424225997	350
14	3070	217.678424225997	351
14	3126	222.727605800674	352
14	3126	222.727605800674	353
14	3126	222.727605800674	354
14	3126	222.727605800674	355
14	3134	222.852990053199	356
14	3178	227.776787375351	357
14	3178	227.776787375351	358
14	3178	227.776787375351	359
14	3178	227.776787375351	360
14	3187	227.8634732578	361
14	3189	227.899204165251	362
14	3221	229.899204165251	363
14	3242	231.899204165251	364
14	3255	232.399204165251	365
14	3283	233.899204165251	366
14	3304	235.899204165251	367
14	3317	236.899204165251	368
14	3368	239.899204165251	369
14	3392	241.399204165251	370
14	3416	241.899204165251	371
14	3435	243.899204165251	372
14	3466	245.899204165251	373
14	3467	245.899204165251	374
14	3502	247.899204165251	375
14	3521	249.899204165251	376
15	30	5.049181574677	1
15	30	5.049181574677	2
15	30	5.049181574677	3
15	30	5.049181574677	4
15	1086	72.248224414706	5
15	1086	72.248224414706	6
15	1086	72.248224414706	7
15	1086	72.248224414706	8
15	3126	222.727605800674	9
15	3126	222.727605800674	10
15	3126	222.727605800674	11
15	3126	222.727605800674	12
15	3178	227.776787375351	13
15	3178	227.776787375351	14
15	3178	227.776787375351	15
15	3178	227.776787375351	16
16	32	5.059093909465	1
16	32	5.059093909465	2
16	32	5.059093909465	3
16	32	5.059093909465	4
16	78	7.059093909465	5
16	78	7.059093909465	6
16	78	7.059093909465	7
16	78	7.059093909465	8
16	115	9.059093909465	9
16	115	9.059093909465	10
16	115	9.059093909465	11
16	115	9.059093909465	12
16	125	9.559093909465	13
16	125	9.559093909465	14
16	125	9.559093909465	15
16	125	9.559093909465	16
16	164	11.059093909465	17
16	164	11.059093909465	18
16	164	11.059093909465	19
16	164	11.059093909465	20
16	183	13.059093909465	21
16	183	13.059093909465	22
16	183	13.059093909465	23
16	183	13.059093909465	24
16	197	14.059093909465	25
16	197	14.059093909465	26
16	197	14.059093909465	27
16	197	14.059093909465	28
16	231	15.059093909465	29
16	231	15.059093909465	30
16	231	15.059093909465	31
16	231	15.059093909465	32
16	250	17.059093909465	33
16	250	17.059093909465	34
16	250	17.059093909465	35
16	250	17.059093909465	36
16	264	18.559093909465	37
16	264	18.559093909465	38
16	264	18.559093909465	39
16	264	18.559093909465	40
16	293	19.059093909465	41
16	293	19.059093909465	42
16	293	19.059093909465	43
16	293	19.059093909465	44
16	317	21.059093909465	45
16	317	21.059093909465	46
16	317	21.059093909465	47
16	317	21.059093909465	48
16	336	23.059093909465	49
16	336	23.059093909465	50
16	336	23.059093909465	51
16	336	23.059093909465	52
16	337	23.059093909465	53
16	337	23.059093909465	54
16	337	23.059093909465	55
16	337	23.059093909465	56
16	382	25.059093909465	57
16	382	25.059093909465	58
16	382	25.059093909465	59
16	382	25.059093909465	60
16	400	27.059093909465	61
16	400	27.059093909465	62
16	400	27.059093909465	63
16	400	27.059093909465	64
16	408	27.559093909465	65
16	408	27.559093909465	66
16	408	27.559093909465	67
16	408	27.559093909465	68
16	446	29.059093909465	69
16	446	29.059093909465	70
16	446	29.059093909465	71
16	446	29.059093909465	72
16	465	31.059093909465	73
16	465	31.059093909465	74
16	465	31.059093909465	75
16	465	31.059093909465	76
16	479	32.059093909465	77
16	479	32.059093909465	78
16	479	32.059093909465	79
16	479	32.059093909465	80
16	513	33.059093909465	81
16	513	33.059093909465	82
16	513	33.059093909465	83
16	513	33.059093909465	84
16	532	35.059093909465	85
16	532	35.059093909465	86
16	532	35.059093909465	87
16	532	35.059093909465	88
16	546	36.559093909465	89
16	546	36.559093909465	90
16	546	36.559093909465	91
16	546	36.559093909465	92
16	574	37.059093909465	93
16	574	37.059093909465	94
16	574	37.059093909465	95
16	574	37.059093909465	96
16	597	39.059093909465	97
16	597	39.059093909465	98
16	597	39.059093909465	99
16	597	39.059093909465	100
16	615	41.059093909465	101
16	615	41.059093909465	102
16	615	41.059093909465	103
16	615	41.059093909465	104
16	616	41.059093909465	105
16	616	41.059093909465	106
16	616	41.059093909465	107
16	616	41.059093909465	108
16	661	43.059093909465	109
16	661	43.059093909465	110
16	661	43.059093909465	111
16	661	43.059093909465	112
16	679	45.059093909465	113
16	679	45.059093909465	114
16	679	45.059093909465	115
16	679	45.059093909465	116
16	687	45.559093909465	117
16	687	45.559093909465	118
16	687	45.559093909465	119
16	687	45.559093909465	120
16	725	47.059093909465	121
16	725	47.059093909465	122
16	725	47.059093909465	123
16	725	47.059093909465	124
16	744	49.059093909465	125
16	744	49.059093909465	126
16	744	49.059093909465	127
16	744	49.059093909465	128
16	758	50.059093909465	129
16	758	50.059093909465	130
16	758	50.059093909465	131
16	758	50.059093909465	132
16	792	51.059093909465	133
16	792	51.059093909465	134
16	792	51.059093909465	135
16	792	51.059093909465	136
16	811	53.059093909465	137
16	811	53.059093909465	138
16	811	53.059093909465	139
16	811	53.059093909465	140
16	825	54.559093909465	141
16	825	54.559093909465	142
16	825	54.559093909465	143
16	825	54.559093909465	144
16	854	55.059093909465	145
16	854	55.059093909465	146
16	854	55.059093909465	147
16	854	55.059093909465	148
16	877	57.059093909465	149
16	877	57.059093909465	150
16	877	57.059093909465	151
16	877	57.059093909465	152
16	895	59.059093909465	153
16	895	59.059093909465	154
16	895	59.059093909465	155
16	895	59.059093909465	156
16	896	59.059093909465	157
16	896	59.059093909465	158
16	896	59.059093909465	159
16	896	59.059093909465	160
16	941	61.059093909465	161
16	941	61.059093909465	162
16	941	61.059093909465	163
16	941	61.059093909465	164
16	959	63.059093909465	165
16	959	63.059093909465	166
16	959	63.059093909465	167
16	959	63.059093909465	168
16	967	63.559093909465	169
16	967	63.559093909465	170
16	967	63.559093909465	171
16	967	63.559093909465	172
16	1005	65.059093909465	173
16	1005	65.059093909465	174
16	1005	65.059093909465	175
16	1005	65.059093909465	176
16	1023	67.059093909465	177
16	1023	67.059093909465	178
16	1023	67.059093909465	179
16	1023	67.059093909465	180
16	1037	68.059093909465	181
16	1037	68.059093909465	182
16	1037	68.059093909465	183
16	1037	68.059093909465	184
16	2758	193.499985050357	185
16	2758	193.499985050357	186
16	2758	193.499985050357	187
16	2758	193.499985050357	188
16	3176	227.759255234687	189
16	3176	227.759255234687	190
16	3176	227.759255234687	191
16	3176	227.759255234687	192
16	3216	229.759255234687	193
16	3216	229.759255234687	194
16	3216	229.759255234687	195
16	3216	229.759255234687	196
16	3236	231.759255234687	197
16	3236	231.759255234687	198
16	3236	231.759255234687	199
16	3236	231.759255234687	200
16	3249	232.259255234687	201
16	3249	232.259255234687	202
16	3249	232.259255234687	203
16	3249	232.259255234687	204
16	3277	233.759255234687	205
16	3277	233.759255234687	206
16	3277	233.759255234687	207
16	3277	233.759255234687	208
16	3298	235.759255234687	209
16	3298	235.759255234687	210
16	3298	235.759255234687	211
16	3298	235.759255234687	212
16	3311	236.759255234687	213
16	3311	236.759255234687	214
16	3311	236.759255234687	215
16	3311	236.759255234687	216
16	3340	237.759255234687	217
16	3340	237.759255234687	218
16	3340	237.759255234687	219
16	3340	237.759255234687	220
16	3361	239.759255234687	221
16	3361	239.759255234687	222
16	3361	239.759255234687	223
16	3361	239.759255234687	224
16	3380	241.259255234687	225
16	3380	241.259255234687	226
16	3380	241.259255234687	227
16	3380	241.259255234687	228
16	3404	241.759255234687	229
16	3404	241.759255234687	230
16	3404	241.759255234687	231
16	3404	241.759255234687	232
16	3428	243.759255234687	233
16	3428	243.759255234687	234
16	3428	243.759255234687	235
16	3428	243.759255234687	236
16	3447	245.759255234687	237
16	3447	245.759255234687	238
16	3447	245.759255234687	239
16	3447	245.759255234687	240
16	3448	245.759255234687	241
16	3448	245.759255234687	242
16	3448	245.759255234687	243
16	3448	245.759255234687	244
16	3495	247.759255234687	245
16	3495	247.759255234687	246
16	3495	247.759255234687	247
16	3495	247.759255234687	248
16	3514	249.759255234687	249
16	3514	249.759255234687	250
16	3514	249.759255234687	251
16	3514	249.759255234687	252
17	33	5.060220235521	1
17	129	9.607704614329	2
17	129	9.607704614329	3
17	129	9.607704614329	4
17	129	9.607704614329	5
17	129	9.607704614329	6
17	201	14.107704614329	7
17	201	14.107704614329	8
17	201	14.107704614329	9
17	201	14.107704614329	10
17	201	14.107704614329	11
17	268	18.607704614329	12
17	268	18.607704614329	13
17	268	18.607704614329	14
17	268	18.607704614329	15
17	268	18.607704614329	16
17	344	23.107704614329	17
17	344	23.107704614329	18
17	344	23.107704614329	19
17	344	23.107704614329	20
17	344	23.107704614329	21
17	412	27.607704614329	22
17	412	27.607704614329	23
17	412	27.607704614329	24
17	412	27.607704614329	25
17	412	27.607704614329	26
17	483	32.107704614329	27
17	483	32.107704614329	28
17	483	32.107704614329	29
17	483	32.107704614329	30
17	483	32.107704614329	31
17	551	36.652820838016	32
17	551	36.652820838016	33
17	551	36.652820838016	34
17	551	36.652820838016	35
17	551	36.652820838016	36
17	625	41.152820838016	37
17	625	41.152820838016	38
17	625	41.152820838016	39
17	625	41.152820838016	40
17	625	41.152820838016	41
17	692	45.652820838016	42
17	692	45.652820838016	43
17	692	45.652820838016	44
17	692	45.652820838016	45
17	692	45.652820838016	46
17	762	50.107704614329	47
17	762	50.107704614329	48
17	762	50.107704614329	49
17	762	50.107704614329	50
17	762	50.107704614329	51
17	829	54.607704614329	52
17	829	54.607704614329	53
17	829	54.607704614329	54
17	829	54.607704614329	55
17	829	54.607704614329	56
17	905	59.152820838016	57
17	905	59.152820838016	58
17	905	59.152820838016	59
17	905	59.152820838016	60
17	905	59.152820838016	61
17	972	63.652820838016	62
17	972	63.652820838016	63
17	972	63.652820838016	64
17	972	63.652820838016	65
17	972	63.652820838016	66
17	1041	68.107704614329	67
17	1041	68.107704614329	68
17	1041	68.107704614329	69
17	1041	68.107704614329	70
17	1041	68.107704614329	71
17	2495	174.261239879165	72
17	3128	222.738644461518	73
17	3182	227.787826036195	74
17	3256	232.410242826095	75
17	3256	232.410242826095	76
17	3318	236.910242826095	77
17	3318	236.910242826095	78
17	3318	236.910242826095	79
17	3318	236.910242826095	80
17	3384	241.307865939551	81
17	3384	241.307865939551	82
17	3384	241.307865939551	83
17	3384	241.307865939551	84
17	3384	241.307865939551	85
17	3455	245.807865939551	86
17	3455	245.807865939551	87
17	3455	245.807865939551	88
17	3455	245.807865939551	89
17	3455	245.807865939551	90
18	34	5.063610848555	1
18	43	5.120633100796	2
18	45	5.150432135165	3
18	48	5.199042840029	4
18	49	5.200169166085	5
18	50	5.20518159669	6
18	67	6.846596182255	7
18	87	7.199042840029	8
18	101	8.401139055954	9
18	123	9.199042840029	10
18	137	9.699042840029	11
18	171	11.199042840029	12
18	190	13.199042840029	13
18	209	14.199042840029	14
18	238	15.199042840029	15
18	257	17.199042840029	16
18	276	18.699042840029	17
18	305	19.199042840029	18
18	324	21.199042840029	19
18	353	23.199042840029	20
18	354	23.199042840029	21
18	388	25.199042840029	22
18	406	27.199042840029	23
18	419	27.699042840029	24
18	453	29.199042840029	25
18	472	31.199042840029	26
18	491	32.199042840029	27
18	520	33.199042840029	28
18	539	35.199042840029	29
18	552	36.699042840029	30
18	585	37.199042840029	31
18	603	39.199042840029	32
18	627	41.199042840029	33
18	628	41.199042840029	34
18	667	43.199042840029	35
18	685	45.199042840029	36
18	693	45.699042840029	37
18	732	47.199042840029	38
18	751	49.199042840029	39
18	770	50.199042840029	40
18	799	51.199042840029	41
18	818	53.199042840029	42
18	837	54.699042840029	43
18	865	55.199042840029	44
18	883	57.199042840029	45
18	907	59.199042840029	46
18	908	59.199042840029	47
18	947	61.199042840029	48
18	965	63.199042840029	49
18	973	63.699042840029	50
18	1011	65.199042840029	51
18	1030	67.199042840029	52
18	1049	68.199042840029	53
18	1089	72.262653688584	54
18	1091	72.319675940825	55
18	1095	72.334105214703	56
18	1097	72.391127466944	57
18	1099	72.404224436719	58
18	1100	72.475675962838	59
18	1114	74.334105214703	60
18	1116	74.391127466944	61
18	1118	74.475675962838	62
18	1136	75.620714160342	63
18	1145	76.334105214703	64
18	1147	76.391127466944	65
18	1151	76.475675962838	66
18	1156	76.834105214703	67
18	1160	76.891127466944	68
18	1162	76.975675962838	69
18	1187	77.496690733753	70
18	1188	77.532129061036	71
18	1190	77.56191280637	72
18	1191	77.564231129241	73
18	1192	77.579738272021	74
18	1201	78.334105214703	75
18	1203	78.391127466944	76
18	1205	78.475675962838	77
18	1219	80.334105214703	78
18	1221	80.391127466944	79
18	1223	80.475675962838	80
18	1232	81.334105214703	81
18	1234	81.391127466944	82
18	1236	81.470663532233	83
18	1237	81.475675962838	84
18	1253	81.996690733753	85
18	1259	82.032129061036	86
18	1260	82.06191280637	87
18	1261	82.064231129241	88
18	1262	82.079738272021	89
18	1266	82.334105214703	90
18	1268	82.391127466944	91
18	1270	82.470663532233	92
18	1271	82.475675962838	93
18	1285	84.334105214703	94
18	1287	84.391127466944	95
18	1289	84.470663532233	96
18	1290	84.475675962838	97
18	1299	85.834105214703	98
18	1301	85.891127466944	99
18	1303	85.970663532233	100
18	1304	85.975675962838	101
18	1328	86.334105214703	102
18	1330	86.391127466944	103
18	1332	86.470663532233	104
18	1333	86.475675962838	105
18	1334	86.496690733753	106
18	1335	86.532129061036	107
18	1336	86.56191280637	108
18	1337	86.564231129241	109
18	1338	86.579738272021	110
18	1352	88.334105214703	111
18	1354	88.391127466944	112
18	1356	88.470663532233	113
18	1357	88.475675962838	114
18	1374	90.334105214703	115
18	1375	90.334105214703	116
18	1378	90.391127466944	117
18	1379	90.391127466944	118
18	1382	90.470663532233	119
18	1383	90.470663532233	120
18	1384	90.475675962838	121
18	1385	90.475675962838	122
18	1401	90.996690733753	123
18	1407	91.032129061036	124
18	1408	91.06191280637	125
18	1409	91.064231129241	126
18	1410	91.079738272021	127
18	1419	92.334105214703	128
18	1421	92.391127466944	129
18	1423	92.470663532233	130
18	1424	92.475675962838	131
18	1438	94.334105214703	132
18	1440	94.391127466944	133
18	1442	94.470663532233	134
18	1443	94.475675962838	135
18	1447	94.834105214703	136
18	1449	94.891127466944	137
18	1451	94.970663532233	138
18	1452	94.975675962838	139
18	1473	95.496690733753	140
18	1474	95.532129061036	141
18	1475	95.56191280637	142
18	1476	95.564231129241	143
18	1477	95.579738272021	144
18	1486	96.334105214703	145
18	1488	96.391127466944	146
18	1490	96.470663532233	147
18	1491	96.475675962838	148
18	1505	98.334105214703	149
18	1507	98.391127466944	150
18	1509	98.470663532233	151
18	1510	98.475675962838	152
18	1519	99.334105214703	153
18	1521	99.391127466944	154
18	1523	99.470663532233	155
18	1524	99.475675962838	156
18	1540	99.996690733753	157
18	1546	100.032129061036	158
18	1547	100.06191280637	159
18	1548	100.064231129241	160
18	1549	100.079738272021	161
18	1553	100.334105214703	162
18	1555	100.391127466944	163
18	1557	100.470663532233	164
18	1558	100.475675962838	165
18	1572	102.334105214703	166
18	1574	102.391127466944	167
18	1576	102.470663532233	168
18	1577	102.475675962838	169
18	1586	103.834105214703	170
18	1588	103.891127466944	171
18	1590	103.970663532233	172
18	1591	103.975675962838	173
18	1615	104.334105214703	174
18	1617	104.391127466944	175
18	1619	104.470663532233	176
18	1620	104.475675962838	177
18	1621	104.496690733753	178
18	1622	104.532129061036	179
18	1623	104.56191280637	180
18	1624	104.564231129241	181
18	1625	104.579738272021	182
18	1639	106.334105214703	183
18	1642	106.470663532233	184
18	1643	106.475675962838	185
18	1660	108.334105214703	186
18	1661	108.334105214703	187
18	1666	108.470663532233	188
18	1667	108.470663532233	189
18	1668	108.475675962838	190
18	1669	108.475675962838	191
18	1690	109.076226799042	192
18	1691	109.111665126325	193
18	1692	109.141448871659	194
18	1693	109.14376719453	195
18	1694	109.15927433731	196
18	1703	110.334105214703	197
18	1706	110.470663532233	198
18	1707	110.475675962838	199
18	1721	112.334105214703	200
18	1724	112.470663532233	201
18	1725	112.475675962838	202
18	1729	112.834105214703	203
18	1732	112.970663532233	204
18	1733	112.975675962838	205
18	1754	113.576226799042	206
18	1755	113.611665126325	207
18	1756	113.641448871659	208
18	1757	113.64376719453	209
18	1758	113.65927433731	210
18	1767	114.334105214703	211
18	1770	114.470663532233	212
18	1771	114.475675962838	213
18	1785	116.334105214703	214
18	1788	116.470663532233	215
18	1789	116.475675962838	216
18	1798	117.334105214703	217
18	1801	117.470663532233	218
18	1802	117.475675962838	219
18	1823	118.076226799042	220
18	1824	118.111665126325	221
18	1825	118.141448871659	222
18	1826	118.14376719453	223
18	1827	118.15927433731	224
18	1831	118.334105214703	225
18	1834	118.470663532233	226
18	1835	118.475675962838	227
18	1849	120.334105214703	228
18	1852	120.470663532233	229
18	1853	120.475675962838	230
18	1864	121.970663532233	231
18	1865	121.975675962838	232
18	1891	122.470663532233	233
18	1892	122.475675962838	234
18	1893	122.581239229647	235
18	1894	122.61667755693	236
18	1895	122.646461302264	237
18	1896	122.648779625135	238
18	1897	122.664286767915	239
18	1913	124.470663532233	240
18	1914	124.475675962838	241
18	1935	126.470663532233	242
18	1936	126.470663532233	243
18	1937	126.475675962838	244
18	1938	126.475675962838	245
18	1959	127.081239229647	246
18	1960	127.11667755693	247
18	1961	127.146461302264	248
18	1962	127.148779625135	249
18	1963	127.164286767915	250
18	1972	128.334105214703	251
18	1975	128.470663532233	252
18	1976	128.475675962838	253
18	1990	130.334105214703	254
18	1993	130.470663532233	255
18	1994	130.475675962838	256
18	1998	130.834105214703	257
18	2001	130.970663532233	258
18	2002	130.975675962838	259
18	2023	131.576226799042	260
18	2024	131.611665126325	261
18	2025	131.641448871659	262
18	2026	131.64376719453	263
18	2027	131.65927433731	264
18	2036	132.334105214703	265
18	2039	132.470663532233	266
18	2040	132.475675962838	267
18	2054	134.334105214703	268
18	2057	134.470663532233	269
18	2058	134.475675962838	270
18	2067	135.334105214703	271
18	2070	135.470663532233	272
18	2071	135.475675962838	273
18	2092	136.076226799042	274
18	2093	136.111665126325	275
18	2094	136.141448871659	276
18	2095	136.14376719453	277
18	2096	136.15927433731	278
18	2100	136.334105214703	279
18	2103	136.470663532233	280
18	2104	136.475675962838	281
18	2118	138.334105214703	282
18	2121	138.470663532233	283
18	2122	138.475675962838	284
18	2131	139.834105214703	285
18	2134	139.970663532233	286
18	2135	139.975675962838	287
18	2155	140.334105214703	288
18	2162	140.470663532233	289
[...]
25	1234	81.391127466944	8
25	1234	81.391127466944	9
25	1234	81.391127466944	10
25	1234	81.391127466944	11
25	1234	81.391127466944	12
25	1301	85.891127466944	13
25	1301	85.891127466944	14
25	1301	85.891127466944	15
25	1301	85.891127466944	16
25	1301	85.891127466944	17
25	1378	90.391127466944	18
25	1378	90.391127466944	19
25	1378	90.391127466944	20
25	1378	90.391127466944	21
25	1378	90.391127466944	22
25	1449	94.891127466944	23
25	1449	94.891127466944	24
25	1449	94.891127466944	25
25	1449	94.891127466944	26
25	1449	94.891127466944	27
25	1521	99.391127466944	28
25	1521	99.391127466944	29
25	1521	99.391127466944	30
25	1521	99.391127466944	31
25	1521	99.391127466944	32
25	1588	103.891127466944	33
25	1588	103.891127466944	34
25	1588	103.891127466944	35
25	1588	103.891127466944	36
25	1588	103.891127466944	37
25	1666	108.470663532233	38
25	1666	108.470663532233	39
25	1666	108.470663532233	40
25	1666	108.470663532233	41
25	1666	108.470663532233	42
25	1732	112.970663532233	43
25	1732	112.970663532233	44
25	1732	112.970663532233	45
25	1732	112.970663532233	46
25	1732	112.970663532233	47
25	1801	117.470663532233	48
25	1801	117.470663532233	49
25	1801	117.470663532233	50
25	1801	117.470663532233	51
25	1801	117.470663532233	52
25	1865	121.975675962838	53
25	1865	121.975675962838	54
25	1865	121.975675962838	55
25	1865	121.975675962838	56
25	1865	121.975675962838	57
25	1937	126.475675962838	58
25	1937	126.475675962838	59
25	1937	126.475675962838	60
25	1937	126.475675962838	61
25	1937	126.475675962838	62
25	2001	130.970663532233	63
25	2001	130.970663532233	64
25	2001	130.970663532233	65
25	2001	130.970663532233	66
25	2001	130.970663532233	67
25	2070	135.470663532233	68
25	2070	135.470663532233	69
25	2070	135.470663532233	70
25	2070	135.470663532233	71
25	2070	135.470663532233	72
25	2134	139.970663532233	73
25	2134	139.970663532233	74
25	2134	139.970663532233	75
25	2134	139.970663532233	76
25	2134	139.970663532233	77
25	3134	222.852990053199	78
25	3187	227.8634732578	79
26	48	5.199042840029	1
26	87	7.199042840029	2
26	123	9.199042840029	3
26	137	9.699042840029	4
26	171	11.199042840029	5
26	190	13.199042840029	6
26	209	14.199042840029	7
26	238	15.199042840029	8
26	257	17.199042840029	9
26	276	18.699042840029	10
26	305	19.199042840029	11
26	324	21.199042840029	12
26	353	23.199042840029	13
26	354	23.199042840029	14
26	388	25.199042840029	15
26	406	27.199042840029	16
26	419	27.699042840029	17
26	453	29.199042840029	18
26	472	31.199042840029	19
26	491	32.199042840029	20
26	520	33.199042840029	21
26	539	35.199042840029	22
26	552	36.699042840029	23
26	585	37.199042840029	24
26	603	39.199042840029	25
26	627	41.199042840029	26
26	628	41.199042840029	27
26	667	43.199042840029	28
26	685	45.199042840029	29
26	693	45.699042840029	30
26	732	47.199042840029	31
26	751	49.199042840029	32
26	770	50.199042840029	33
26	799	51.199042840029	34
26	818	53.199042840029	35
26	837	54.699042840029	36
26	865	55.199042840029	37
26	883	57.199042840029	38
26	907	59.199042840029	39
26	908	59.199042840029	40
26	947	61.199042840029	41
26	965	63.199042840029	42
26	973	63.699042840029	43
26	1011	65.199042840029	44
26	1030	67.199042840029	45
26	1049	68.199042840029	46
26	2548	178.463552908771	47
26	2581	180.463552908771	48
26	2611	182.463552908771	49
26	2625	183.463552908771	50
26	2645	184.463552908771	51
26	2668	186.463552908771	52
26	2696	187.963552908771	53
26	2710	188.463552908771	54
26	2910	207.678424225997	55
26	2939	209.678424225997	56
26	2952	210.178424225997	57
26	2985	211.678424225997	58
26	3003	213.678424225997	59
26	3017	214.678424225997	60
26	3051	215.678424225997	61
26	3070	217.678424225997	62
26	3189	227.899204165251	63
26	3221	229.899204165251	64
26	3242	231.899204165251	65
26	3255	232.399204165251	66
26	3283	233.899204165251	67
26	3304	235.899204165251	68
26	3317	236.899204165251	69
26	3368	239.899204165251	70
26	3392	241.399204165251	71
26	3416	241.899204165251	72
26	3435	243.899204165251	73
26	3466	245.899204165251	74
26	3467	245.899204165251	75
26	3502	247.899204165251	76
26	3521	249.899204165251	77
27	139	9.852470587225	3.586411249182
27	211	14.352470587225	4.5
27	278	18.852470587225	4.5
27	357	23.352470587225	4.5
27	421	27.852470587225	4.5
27	493	32.352470587225	4.5
27	559	36.897586810912	4.545116223687
27	636	41.397586810912	4.5
27	700	45.897586810912	4.5
27	772	50.352470587225	4.454883776313
27	839	54.852470587225	4.5
27	916	59.397586810912	4.545116223687
27	980	63.897586810912	4.5
27	1051	68.352470587225	4.454883776313
27	1243	81.689461058174	13.336990470949
27	1315	86.189461058174	4.5
27	1391	90.689461058174	4.5
27	1463	95.189461058174	4.5
27	1530	99.689461058174	4.5
27	1602	104.189461058174	4.5
27	1675	108.768997123463	4.579536065289
27	1744	113.268997123463	4.5
27	1808	117.768997123463	4.5
27	1876	122.274009554068	4.505012430605
27	1944	126.774009554068	4.5
27	2013	131.268997123463	4.494987569395
27	2077	135.768997123463	4.5
27	2146	140.268997123463	4.5
27	2964	210.658260623673	70.38926350021
27	3035	215.072336290497	4.414075666824
27	3261	232.655008798991	17.582672508494
27	3328	237.155008798991	4.5
27	3394	241.552631912447	4.397623113456
27	3475	246.052631912447	4.5
28	140	9.854922669697	3.380644476037
28	212	14.354922669697	4.5
28	279	18.854922669697	4.5
28	358	23.354922669697	4.5
28	422	27.854922669697	4.5
28	494	32.354922669697	4.5
28	560	36.900038893384	4.545116223687
28	637	41.400038893384	4.5
28	701	45.900038893384	4.5
28	773	50.354922669697	4.454883776313
28	840	54.854922669697	4.5
28	917	59.400038893384	4.545116223687
28	981	63.900038893384	4.5
28	1052	68.354922669697	4.454883776313
28	1244	81.691913140646	13.336990470949
28	1316	86.191913140646	4.5
28	1392	90.691913140646	4.5
28	1464	95.191913140646	4.5
28	1531	99.691913140646	4.5
28	1603	104.191913140646	4.5
28	1676	108.771449205935	4.579536065289
28	1745	113.271449205935	4.5
28	1809	117.771449205935	4.5
28	1877	122.27646163654	4.505012430605
28	1945	126.77646163654	4.5
28	2014	131.271449205935	4.494987569395
28	2078	135.771449205935	4.5
28	2147	140.271449205935	4.5
28	2965	210.660712706145	70.38926350021
28	3036	215.074788372969	4.414075666824
28	3262	232.657460881463	17.582672508494
28	3329	237.157460881463	4.5
28	3395	241.555083994919	4.397623113456
28	3476	246.055083994919	4.5
29	141	9.855654960875	1.793999534133
29	213	14.355654960875	4.5
29	280	18.855654960875	4.5
29	359	23.355654960875	4.5
29	423	27.855654960875	4.5
29	495	32.355654960875	4.5
29	561	36.900771184562	4.545116223687
29	638	41.400771184562	4.5
29	702	45.900771184562	4.5
29	774	50.355654960875	4.454883776313
29	841	54.855654960875	4.5
29	918	59.400771184562	4.545116223687
29	982	63.900771184562	4.5
29	1053	68.355654960875	4.454883776313
29	1245	81.692645431824	13.336990470949
29	1317	86.192645431824	4.5
29	1393	90.692645431824	4.5
29	1465	95.192645431824	4.5
29	1532	99.692645431824	4.5
29	1604	104.192645431824	4.5
29	1677	108.772181497113	4.579536065289
29	1746	113.272181497113	4.5
29	1810	117.772181497113	4.5
29	1878	122.277193927718	4.505012430605
29	1946	126.777193927718	4.5
29	2015	131.272181497113	4.494987569395
29	2079	135.772181497113	4.5
29	2148	140.272181497113	4.5
29	2966	210.661444997323	70.38926350021
29	3037	215.075520664147	4.414075666824
29	3396	241.555816286097	26.48029562195
29	3477	246.055816286097	4.5
30	142	9.859784957715	3.527145224594
30	214	14.359784957715	4.5
30	281	18.859784957715	4.5
30	360	23.359784957715	4.5
30	424	27.859784957715	4.5
30	496	32.359784957715	4.5
30	562	36.904901181402	4.545116223687
30	639	41.404901181402	4.5
30	703	45.904901181402	4.5
30	775	50.359784957715	4.454883776313
30	842	54.859784957715	4.5
30	919	59.404901181402	4.545116223687
30	983	63.904901181402	4.5
30	1054	68.359784957715	4.454883776313
30	1179	77.196775428664	8.836990470949
30	1246	81.696775428664	4.5
30	1318	86.196775428664	4.5
30	1394	90.696775428664	4.5
30	1466	95.196775428664	4.5
30	1533	99.696775428664	4.5
30	1605	104.196775428664	4.5
30	1678	108.776311493953	4.579536065289
30	1747	113.276311493953	4.5
30	1811	117.776311493953	4.5
30	1879	122.281323924558	4.505012430605
30	1947	126.781323924558	4.5
30	2016	131.276311493953	4.494987569395
30	2080	135.776311493953	4.5
30	2149	140.276311493953	4.5
30	2967	210.665574994163	70.38926350021
30	3038	215.079650660987	4.414075666824
30	3330	237.162323169481	22.082672508494
30	3397	241.559946282937	4.397623113456
30	3478	246.059946282937	4.5
31	147	9.955723842499	1.56958533253
31	219	14.455723842499	4.5
31	286	18.955723842499	4.5
31	365	23.455723842499	4.5
31	429	27.955723842499	4.5
31	501	32.455723842499	4.5
31	572	37.000840066186	4.545116223687
31	644	41.500840066186	4.5
31	713	46.000840066186	4.5
31	780	50.455723842499	4.454883776313
31	847	54.955723842499	4.5
31	924	59.500840066186	4.545116223687
31	993	64.000840066186	4.5
31	1059	68.455723842499	4.454883776313
31	1251	81.792714313448	13.336990470949
31	1323	86.292714313448	4.5
31	1399	90.792714313448	4.5
31	1471	95.292714313448	4.5
31	1538	99.792714313448	4.5
31	1610	104.292714313448	4.5
31	1683	108.872250378737	4.579536065289
31	1752	113.372250378737	4.5
31	1816	117.872250378737	4.5
31	1888	122.377262809342	4.505012430605
31	1952	126.877262809342	4.5
31	2021	131.372250378737	4.494987569395
31	2085	135.872250378737	4.5
31	2159	140.372250378737	4.5
31	2972	210.761513878947	70.38926350021
31	3043	215.175589545771	4.414075666824
31	3334	237.258262054265	22.082672508494
31	3402	241.655885167721	4.397623113456
31	3483	246.155885167721	4.5
32	1091	72.319675940825	1
32	1091	72.319675940825	2
32	1091	72.319675940825	3
32	1091	72.319675940825	4
32	1111	74.319675940825	5
32	1111	74.319675940825	6
32	1111	74.319675940825	7
32	1111	74.319675940825	8
32	1142	76.319675940825	9
32	1142	76.319675940825	10
32	1142	76.319675940825	11
32	1142	76.319675940825	12
32	1153	76.819675940825	13
32	1153	76.819675940825	14
32	1153	76.819675940825	15
32	1153	76.819675940825	16
32	1198	78.319675940825	17
32	1198	78.319675940825	18
32	1198	78.319675940825	19
32	1198	78.319675940825	20
32	1216	80.319675940825	21
32	1216	80.319675940825	22
32	1216	80.319675940825	23
32	1216	80.319675940825	24
32	1229	81.319675940825	25
32	1229	81.319675940825	26
32	1229	81.319675940825	27
32	1229	81.319675940825	28
32	1263	82.319675940825	29
32	1263	82.319675940825	30
32	1263	82.319675940825	31
32	1263	82.319675940825	32
32	1282	84.319675940825	33
32	1282	84.319675940825	34
32	1282	84.319675940825	35
32	1282	84.319675940825	36
32	1296	85.819675940825	37
32	1296	85.819675940825	38
32	1296	85.819675940825	39
32	1296	85.819675940825	40
32	1325	86.319675940825	41
32	1325	86.319675940825	42
32	1325	86.319675940825	43
32	1325	86.319675940825	44
32	1349	88.319675940825	45
32	1349	88.319675940825	46
32	1349	88.319675940825	47
32	1349	88.319675940825	48
32	1368	90.319675940825	49
32	1368	90.319675940825	50
32	1368	90.319675940825	51
32	1368	90.319675940825	52
32	1369	90.319675940825	53
32	1369	90.319675940825	54
32	1369	90.319675940825	55
32	1369	90.319675940825	56
32	1416	92.319675940825	57
32	1416	92.319675940825	58
32	1416	92.319675940825	59
32	1416	92.319675940825	60
32	1435	94.319675940825	61
32	1435	94.319675940825	62
32	1435	94.319675940825	63
32	1435	94.319675940825	64
32	1444	94.819675940825	65
32	1444	94.819675940825	66
32	1444	94.819675940825	67
32	1444	94.819675940825	68
32	1483	96.319675940825	69
32	1483	96.319675940825	70
32	1483	96.319675940825	71
32	1483	96.319675940825	72
32	1502	98.319675940825	73
32	1502	98.319675940825	74
32	1502	98.319675940825	75
32	1502	98.319675940825	76
32	1516	99.319675940825	77
32	1516	99.319675940825	78
32	1516	99.319675940825	79
32	1516	99.319675940825	80
32	1550	100.319675940825	81
32	1550	100.319675940825	82
32	1550	100.319675940825	83
32	1550	100.319675940825	84
32	1569	102.319675940825	85
32	1569	102.319675940825	86
32	1569	102.319675940825	87
32	1569	102.319675940825	88
32	1583	103.819675940825	89
32	1583	103.819675940825	90
32	1583	103.819675940825	91
32	1583	103.819675940825	92
32	1612	104.319675940825	93
32	1612	104.319675940825	94
32	1612	104.319675940825	95
32	1612	104.319675940825	96
32	1636	106.319675940825	97
32	1636	106.319675940825	98
32	1636	106.319675940825	99
32	1636	106.319675940825	100
32	1654	108.319675940825	101
32	1654	108.319675940825	102
32	1654	108.319675940825	103
32	1654	108.319675940825	104
32	1655	108.319675940825	105
32	1655	108.319675940825	106
32	1655	108.319675940825	107
32	1655	108.319675940825	108
32	1700	110.319675940825	109
32	1700	110.319675940825	110
32	1700	110.319675940825	111
32	1700	110.319675940825	112
32	1718	112.319675940825	113
32	1718	112.319675940825	114
32	1718	112.319675940825	115
32	1718	112.319675940825	116
32	1726	112.819675940825	117
32	1726	112.819675940825	118
32	1726	112.819675940825	119
32	1726	112.819675940825	120
32	1764	114.319675940825	121
32	1764	114.319675940825	122
32	1764	114.319675940825	123
32	1764	114.319675940825	124
32	1782	116.319675940825	125
32	1782	116.319675940825	126
32	1782	116.319675940825	127
32	1782	116.319675940825	128
32	1795	117.319675940825	129
32	1795	117.319675940825	130
32	1795	117.319675940825	131
32	1795	117.319675940825	132
32	1828	118.319675940825	133
32	1828	118.319675940825	134
32	1828	118.319675940825	135
32	1828	118.319675940825	136
32	1846	120.319675940825	137
32	1846	120.319675940825	138
32	1846	120.319675940825	139
32	1846	120.319675940825	140
32	1859	121.819675940825	141
32	1859	121.819675940825	142
32	1859	121.819675940825	143
32	1859	121.819675940825	144
32	1881	122.319675940825	145
32	1881	122.319675940825	146
32	1881	122.319675940825	147
32	1881	122.319675940825	148
32	1908	124.319675940825	149
32	1908	124.319675940825	150
32	1908	124.319675940825	151
32	1908	124.319675940825	152
32	1925	126.319675940825	153
32	1925	126.319675940825	154
32	1925	126.319675940825	155
32	1925	126.319675940825	156
32	1926	126.319675940825	157
32	1926	126.319675940825	158
32	1926	126.319675940825	159
32	1926	126.319675940825	160
32	1969	128.319675940825	161
32	1969	128.319675940825	162
32	1969	128.319675940825	163
32	1969	128.319675940825	164
32	1987	130.319675940825	165
32	1987	130.319675940825	166
32	1987	130.319675940825	167
32	1987	130.319675940825	168
32	1995	130.819675940825	169
32	1995	130.819675940825	170
32	1995	130.819675940825	171
32	1995	130.819675940825	172
32	2033	132.319675940825	173
32	2033	132.319675940825	174
32	2033	132.319675940825	175
32	2033	132.319675940825	176
32	2051	134.319675940825	177
32	2051	134.319675940825	178
32	2051	134.319675940825	179
32	2051	134.319675940825	180
32	2064	135.319675940825	181
32	2064	135.319675940825	182
32	2064	135.319675940825	183
32	2064	135.319675940825	184
32	2097	136.319675940825	185
32	2097	136.319675940825	186
32	2097	136.319675940825	187
32	2097	136.319675940825	188
32	2115	138.319675940825	189
32	2115	138.319675940825	190
32	2115	138.319675940825	191
32	2115	138.319675940825	192
32	2128	139.819675940825	193
32	2128	139.819675940825	194
32	2128	139.819675940825	195
32	2128	139.819675940825	196
32	2151	140.319675940825	197
32	2151	140.319675940825	198
32	2151	140.319675940825	199
32	2151	140.319675940825	200
32	2179	142.319675940825	201
32	2179	142.319675940825	202
32	2179	142.319675940825	203
32	2179	142.319675940825	204
33	1231	81.330714601669	1
33	1265	82.330714601669	2
33	1284	84.330714601669	3
33	1298	85.830714601669	4
33	1327	86.330714601669	5
33	1351	88.330714601669	6
33	1372	90.330714601669	7
33	1373	90.330714601669	8
33	1418	92.330714601669	9
33	1437	94.330714601669	10
33	1446	94.830714601669	11
33	1485	96.330714601669	12
33	1504	98.330714601669	13
33	1518	99.330714601669	14
33	1552	100.330714601669	15
33	1571	102.330714601669	16
33	1585	103.830714601669	17
33	1614	104.330714601669	18
33	1638	106.330714601669	19
33	1658	108.330714601669	20
33	1659	108.330714601669	21
33	1702	110.330714601669	22
33	1720	112.330714601669	23
33	1728	112.830714601669	24
33	1766	114.330714601669	25
33	1784	116.330714601669	26
33	1797	117.330714601669	27
33	1830	118.330714601669	28
33	1848	120.330714601669	29
33	1861	121.830714601669	30
33	1883	122.330714601669	31
33	1910	124.330714601669	32
33	1929	126.330714601669	33
33	1930	126.330714601669	34
33	1971	128.330714601669	35
33	1989	130.330714601669	36
33	1997	130.830714601669	37
33	2035	132.330714601669	38
33	2053	134.330714601669	39
33	2066	135.330714601669	40
33	2099	136.330714601669	41
33	2117	138.330714601669	42
33	2130	139.830714601669	43
33	2154	140.330714601669	44
33	2501	174.395774917205	45
33	2527	176.395774917205	46
33	2545	178.395774917205	47
33	2578	180.395774917205	48
33	2608	182.395774917205	49
33	2622	183.395774917205	50
33	2642	184.395774917205	51
33	2664	186.395774917205	52
33	2693	187.895774917205	53
33	2707	188.395774917205	54
33	3007	213.702557918034	55
33	3021	214.702557918034	56
33	3055	215.702557918034	57
33	3074	217.702557918034	58
34	2233	148.248862066384	1
34	2233	148.248862066384	2
34	2233	148.248862066384	3
34	2233	148.248862066384	4
34	2289	154.09738980738	5
34	2289	154.09738980738	6
34	2289	154.09738980738	7
34	2289	154.09738980738	8
34	2494	174.253676233281	9
34	2494	174.253676233281	10
34	2494	174.253676233281	11
34	2494	174.253676233281	12
35	2296	154.23192484542	1
35	2296	154.23192484542	2
35	2296	154.23192484542	3
35	2296	154.23192484542	4
35	2313	156.23192484542	5
35	2313	156.23192484542	6
35	2313	156.23192484542	7
35	2313	156.23192484542	8
35	2335	158.23192484542	9
35	2335	158.23192484542	10
35	2335	158.23192484542	11
35	2335	158.23192484542	12
35	2355	160.23192484542	13
35	2355	160.23192484542	14
35	2355	160.23192484542	15
35	2355	160.23192484542	16
35	2377	162.23192484542	17
35	2377	162.23192484542	18
35	2377	162.23192484542	19
35	2377	162.23192484542	20
35	2500	174.388211271321	21
35	2500	174.388211271321	22
35	2500	174.388211271321	23
35	2500	174.388211271321	24
35	2526	176.388211271321	25
35	2526	176.388211271321	26
35	2526	176.388211271321	27
35	2526	176.388211271321	28
35	2544	178.388211271321	29
35	2544	178.388211271321	30
35	2544	178.388211271321	31
35	2544	178.388211271321	32
35	2577	180.388211271321	33
35	2577	180.388211271321	34
35	2577	180.388211271321	35
35	2577	180.388211271321	36
35	2607	182.388211271321	37
35	2607	182.388211271321	38
35	2607	182.388211271321	39
35	2607	182.388211271321	40
35	2621	183.388211271321	41
35	2621	183.388211271321	42
35	2621	183.388211271321	43
35	2621	183.388211271321	44
35	2641	184.388211271321	45
35	2641	184.388211271321	46
35	2641	184.388211271321	47
35	2641	184.388211271321	48
35	2663	186.388211271321	49
35	2663	186.388211271321	50
35	2663	186.388211271321	51
35	2663	186.388211271321	52
35	2692	187.888211271321	53
35	2692	187.888211271321	54
35	2692	187.888211271321	55
35	2692	187.888211271321	56
35	2706	188.388211271321	57
35	2706	188.388211271321	58
35	2706	188.388211271321	59
35	2706	188.388211271321	60
36	2437	168.375848319059	1
36	2437	168.375848319059	2
36	2437	168.375848319059	3
36	2437	168.375848319059	4
36	2813	199.550109879512	5
36	2813	199.550109879512	6
36	2813	199.550109879512	7
36	2813	199.550109879512	8
36	2872	205.588798488337	9
36	2872	205.588798488337	10
36	2872	205.588798488337	11
36	2872	205.588798488337	12
37	2877	205.6653834335	1
37	2877	205.6653834335	2
37	2877	205.6653834335	3
37	2877	205.6653834335	4
37	2909	207.6653834335	5
37	2909	207.6653834335	6
37	2909	207.6653834335	7
37	2909	207.6653834335	8
37	2938	209.6653834335	9
37	2938	209.6653834335	10
37	2938	209.6653834335	11
37	2938	209.6653834335	12
37	2951	210.1653834335	13
37	2951	210.1653834335	14
37	2951	210.1653834335	15
37	2951	210.1653834335	16
37	2984	211.6653834335	17
37	2984	211.6653834335	18
37	2984	211.6653834335	19
37	2984	211.6653834335	20
37	3002	213.6653834335	21
37	3002	213.6653834335	22
37	3002	213.6653834335	23
37	3002	213.6653834335	24
37	3016	214.6653834335	25
37	3016	214.6653834335	26
37	3016	214.6653834335	27
37	3016	214.6653834335	28
37	3050	215.6653834335	29
37	3050	215.6653834335	30
37	3050	215.6653834335	31
37	3050	215.6653834335	32
37	3069	217.6653834335	33
37	3069	217.6653834335	34
37	3069	217.6653834335	35
37	3069	217.6653834335	36

