version 2
run StaticNetwork-1-20220402-10:40:07-10268
attr configname StaticNetwork
attr datetime 20220402-10:40:07
attr experiment StaticNetwork
attr inifile omnetpp.ini
attr iterationvars "$0=3, $1=5, $2=normal(7.0s, 1.5s), $3=uniform(0.1s, 0.3s), $4=normal(5.0s, 1s), $5=2s, $6=4.5s, $7=5s, $8=1s, $9=1, $10=7, $11=0"
attr iterationvarsf 3,5,normal(7.0s,_1.5s),uniform(0.1s,_0.3s),normal(5.0s,_1s),2s,4.5s,5s,1s,1,7,0-
attr measurement "$0=3, $1=5, $2=normal(7.0s, 1.5s), $3=uniform(0.1s, 0.3s), $4=normal(5.0s, 1s), $5=2s, $6=4.5s, $7=5s, $8=1s, $9=1, $10=7, $11=0"
attr network RAFT_Network
attr processid 10268
attr repetition 1
attr replication #1
attr resultdir results
attr runnumber 1
attr seedset 1
param **.servers_number 3
param **.clients_number 5
param **.client[*].requestMsgTimeout "normal(7.0s, 1.5s)"
param **.cloud.propDelay "uniform(0.1s, 0.3s)"
param **.server[*].electionTimeout "normal(5.0s, 1s)"
param **.server[*].heartbeatTimeout 2s
param **.server[*].appendEntriesTimeout 4.5s
param **.server[*].checkFailureTimeout 5s
param **.server[*].checkRecoveryTimeout 1s
param **.failureProbability 1
param **.recoveryProbability 7
param **.messageLossProbability 0

vector 0 RAFT_Network.server[0] serverState ETV
vector 1 RAFT_Network.server[1] serverState ETV
vector 2 RAFT_Network.server[2] serverState ETV
vector 3 RAFT_Network.server[2] totMsgSent ETV
vector 4 RAFT_Network.server[2] totRequestVoteMsgSent ETV
vector 5 RAFT_Network.server[0] totMsgReceived ETV
vector 6 RAFT_Network.server[0] totMsgSent ETV
vector 7 RAFT_Network.server[0] totReplyToClientRequestMsgSent ETV
vector 8 RAFT_Network.server[1] totMsgReceived ETV
vector 9 RAFT_Network.server[1] totMsgSent ETV
vector 10 RAFT_Network.server[1] totReplyToClientRequestMsgSent ETV
vector 11 RAFT_Network.server[2] totMsgReceived ETV
vector 12 RAFT_Network.server[0] electionsMeanTime ETV
vector 13 RAFT_Network.server[2] totAppendEntriesMsgSent ETV
vector 14 RAFT_Network.server[0] totReplyToAppendEntriesMsgSent ETV
vector 15 RAFT_Network.server[1] totReplyToAppendEntriesMsgSent ETV
vector 16 RAFT_Network.server[2] totReplyToClientRequestMsgSent ETV
vector 17 RAFT_Network.client[3] responseTime ETV
vector 18 RAFT_Network.client[4] responseTime ETV
vector 19 RAFT_Network.client[1] responseTime ETV
vector 20 RAFT_Network.client[2] responseTime ETV
vector 21 RAFT_Network.client[0] responseTime ETV
vector 22 RAFT_Network.server[0] totRequestVoteMsgSent ETV
vector 23 RAFT_Network.server[0] totAppendEntriesMsgSent ETV
vector 24 RAFT_Network.server[2] totReplyToAppendEntriesMsgSent ETV
vector 25 RAFT_Network.server[1] totRequestVoteMsgSent ETV
0	0	0	0
0	5	5.037650173532	0
0	5	5.037650173532	0
0	2948	345.15292372752	0
0	2948	345.15292372752	1
0	2952	345.328706516818	1
0	2952	345.328706516818	2
0	3511	410	2
0	3511	410	-1
0	3553	417	-1
0	3553	417	0
0	3558	418.536582818857	0
0	3558	418.536582818857	0
0	3821	447	0
0	3821	447	-1
0	3855	451	-1
0	3855	451	0
0	4684	550.575271427682	0
0	4684	550.575271427682	1
0	4687	550.75105421698	1
0	4687	550.75105421698	2
0	5811	681	2
0	5811	681	-1
0	5897	693	-1
0	5897	693	0
0	5902	693.958930519019	0
0	5902	693.958930519019	0
0	6207	729.997619127844	0
0	6207	729.997619127844	1
0	6212	730.173401917142	1
0	6212	730.173401917142	2
0	8602	1008	2
0	8602	1008	-1
0	8992	1053	-1
0	8992	1053	0
0	8994	1053.381278219181	0
0	8994	1053.381278219181	0
0	12465	1458.419966828006	0
0	12465	1458.419966828006	1
0	12468	1458.595749617304	1
0	12468	1458.595749617304	2
0	12508	1463	2
0	12508	1463	-1
0	12728	1494	-1
0	12728	1494	0
0	12730	1494.276123764464	0
0	12730	1494.276123764464	0
0	20303	2370.814812373289	0
0	20303	2370.814812373289	1
0	20307	2370.990595162587	1
0	20307	2370.990595162587	2
0	25750	3000	2
1	0	0	0
1	6	5.068277190131	0
1	6	5.068277190131	0
1	1183	140	0
1	1183	140	-1
1	1319	154	-1
1	1319	154	0
1	1445	169	0
1	1445	169	-1
1	1646	192	-1
1	1646	192	0
1	2951	345.290008528304	0
1	2951	345.290008528304	0
1	3004	352	0
1	3004	352	-1
1	3167	372	-1
1	3167	372	0
1	3311	387	0
1	3311	387	-1
1	3480	408	-1
1	3480	408	0
1	3520	414.490624890293	0
1	3520	414.490624890293	0
1	3984	468	0
1	3984	468	-1
1	4008	469	-1
1	4008	469	0
1	4686	550.712356228466	0
1	4686	550.712356228466	0
1	5847	685.912972590455	0
1	5847	685.912972590455	0
1	6211	730.134703928628	0
1	6211	730.134703928628	0
1	8613	1011.335320290617	0
1	8613	1011.335320290617	0
1	12467	1458.55705162879	0
1	12467	1458.55705162879	0
1	12544	1469.187966052112	0
1	12544	1469.187966052112	1
1	12583	1475.643097686136	1
1	12583	1475.643097686136	1
1	12608	1480.7301658359	1
1	12608	1480.7301658359	0
1	14634	1714	0
1	14634	1714	-1
1	14710	1722	-1
1	14710	1722	0
1	20306	2370.951897174073	0
1	20306	2370.951897174073	0
1	20444	2387	0
1	20444	2387	-1
1	20448	2388	-1
1	20448	2388	0
1	23011	2683	0
1	23011	2683	-1
1	23060	2690	-1
1	23060	2690	0
1	23100	2695	0
1	23100	2695	-1
1	23134	2698	-1
1	23134	2698	0
1	25750	3000	0
2	0	0	0
2	4	5.010483204601	0
2	4	5.010483204601	1
2	7	5.087068149764	1
2	7	5.087068149764	2
2	2930	340	2
2	2930	340	-1
2	3090	365	-1
2	3090	365	0
2	3095	365.422347700162	0
2	3095	365.422347700162	0
2	3518	414.432830904763	0
2	3518	414.432830904763	1
2	3521	414.509415849926	1
2	3521	414.509415849926	2
2	4649	545	2
2	4649	545	-1
2	4877	573	-1
2	4877	573	0
2	4879	573.344695400324	0
2	4879	573.344695400324	0
2	5613	658	0
2	5613	658	-1
2	5628	659	-1
2	5628	659	0
2	5845	685.855178604925	0
2	5845	685.855178604925	1
2	5848	685.931763550088	1
2	5848	685.931763550088	2
2	6175	724	2
2	6175	724	-1
2	6310	743	-1
2	6310	743	0
2	6312	743.767043100486	0
2	6312	743.767043100486	0
2	8609	1011.277526305087	0
2	8609	1011.277526305087	1
2	8614	1011.35411125025	1
2	8614	1011.35411125025	2
2	12456	1453	2
2	12456	1453	-1
2	12551	1470	-1
2	12551	1470	0
2	12579	1475.010483204601	0
2	12579	1475.010483204601	1
2	12584	1475.661888645769	1
2	12584	1475.661888645769	0
2	12606	1480.67237185037	0
2	12606	1480.67237185037	1
2	12609	1480.748956795533	1
2	12609	1480.748956795533	2
2	20281	2365	2
2	20281	2365	-1
2	20347	2376	-1
2	20347	2376	0
2	20354	2377.084236345931	0
2	20354	2377.084236345931	0
2	25074	2921	0
2	25074	2921	-1
2	25470	2967	-1
2	25470	2967	0
2	25750	3000	0
3	4	5.010483204601	1
3	4	5.010483204601	2
3	7	5.087068149764	3
3	7	5.087068149764	4
3	33	7.087068149764	5
3	33	7.087068149764	6
3	49	9.087068149764	7
3	49	9.087068149764	8
3	54	9.587068149764	9
3	54	9.587068149764	10
3	57	9.663653094927	11
3	57	9.663653094927	12
3	57	9.663653094927	13
3	57	9.663653094927	14
3	57	9.663653094927	15
3	82	11.087068149764	16
3	82	11.087068149764	17
3	87	13.087068149764	18
3	87	13.087068149764	19
3	92	14.087068149764	20
3	92	14.087068149764	21
3	95	14.163653094927	22
3	95	14.163653094927	23
3	95	14.163653094927	24
3	95	14.163653094927	25
3	95	14.163653094927	26
3	120	15.087068149764	27
3	120	15.087068149764	28
3	125	17.087068149764	29
3	125	17.087068149764	30
3	130	18.587068149764	31
3	130	18.587068149764	32
3	133	18.663653094927	33
3	133	18.663653094927	34
3	133	18.663653094927	35
3	133	18.663653094927	36
3	133	18.663653094927	37
3	151	19.087068149764	38
3	151	19.087068149764	39
3	163	21.087068149764	40
3	163	21.087068149764	41
3	168	23.087068149764	42
3	168	23.087068149764	43
3	169	23.087068149764	44
3	169	23.087068149764	45
3	174	23.163653094927	46
3	174	23.163653094927	47
3	174	23.163653094927	48
3	174	23.163653094927	49
3	174	23.163653094927	50
3	201	25.087068149764	51
3	201	25.087068149764	52
3	206	27.087068149764	53
3	206	27.087068149764	54
3	211	27.587068149764	55
3	211	27.587068149764	56
3	214	27.663653094927	57
3	214	27.663653094927	58
3	214	27.663653094927	59
3	214	27.663653094927	60
3	214	27.663653094927	61
3	236	29.087068149764	62
3	236	29.087068149764	63
3	244	31.087068149764	64
3	244	31.087068149764	65
3	249	32.087068149764	66
3	249	32.087068149764	67
3	252	32.163653094927	68
3	252	32.163653094927	69
3	252	32.163653094927	70
3	252	32.163653094927	71
3	252	32.163653094927	72
3	274	33.087068149764	73
3	274	33.087068149764	74
3	282	35.087068149764	75
3	282	35.087068149764	76
3	287	36.587068149764	77
3	287	36.587068149764	78
3	290	36.663653094927	79
3	290	36.663653094927	80
3	290	36.663653094927	81
3	290	36.663653094927	82
3	290	36.663653094927	83
3	308	37.087068149764	84
3	308	37.087068149764	85
3	317	39.087068149764	86
3	317	39.087068149764	87
3	325	41.087068149764	88
3	325	41.087068149764	89
3	326	41.087068149764	90
3	326	41.087068149764	91
3	331	41.163653094927	92
3	331	41.163653094927	93
3	331	41.163653094927	94
3	331	41.163653094927	95
3	331	41.163653094927	96
3	355	43.087068149764	97
3	355	43.087068149764	98
3	363	45.087068149764	99
3	363	45.087068149764	100
3	368	45.587068149764	101
3	368	45.587068149764	102
3	371	45.663653094927	103
3	371	45.663653094927	104
3	371	45.663653094927	105
3	371	45.663653094927	106
3	371	45.663653094927	107
3	393	47.087068149764	108
3	393	47.087068149764	109
3	398	49.087068149764	110
3	398	49.087068149764	111
3	406	50.087068149764	112
3	406	50.087068149764	113
3	409	50.163653094927	114
3	409	50.163653094927	115
3	409	50.163653094927	116
3	409	50.163653094927	117
3	409	50.163653094927	118
3	431	51.087068149764	119
3	431	51.087068149764	120
3	436	53.087068149764	121
3	436	53.087068149764	122
3	441	54.587068149764	123
3	441	54.587068149764	124
3	444	54.663653094927	125
3	444	54.663653094927	126
3	444	54.663653094927	127
3	444	54.663653094927	128
3	444	54.663653094927	129
3	465	55.087068149764	130
3	465	55.087068149764	131
3	474	57.087068149764	132
3	474	57.087068149764	133
3	479	59.087068149764	134
3	479	59.087068149764	135
3	480	59.087068149764	136
3	480	59.087068149764	137
3	485	59.163653094927	138
3	485	59.163653094927	139
3	485	59.163653094927	140
3	485	59.163653094927	141
3	485	59.163653094927	142
3	512	61.087068149764	143
3	512	61.087068149764	144
3	517	63.087068149764	145
3	517	63.087068149764	146
3	522	63.587068149764	147
3	522	63.587068149764	148
3	525	63.663653094927	149
3	525	63.663653094927	150
3	525	63.663653094927	151
3	525	63.663653094927	152
3	525	63.663653094927	153
3	550	65.087068149764	154
3	550	65.087068149764	155
3	555	67.087068149764	156
3	555	67.087068149764	157
3	560	68.087068149764	158
3	560	68.087068149764	159
3	563	68.163653094927	160
3	563	68.163653094927	161
3	563	68.163653094927	162
3	563	68.163653094927	163
3	563	68.163653094927	164
3	585	69.087068149764	165
3	585	69.087068149764	166
3	593	71.087068149764	167
3	593	71.087068149764	168
3	598	72.587068149764	169
3	598	72.587068149764	170
3	601	72.663653094927	171
3	601	72.663653094927	172
3	601	72.663653094927	173
3	601	72.663653094927	174
3	601	72.663653094927	175
3	619	73.087068149764	176
3	619	73.087068149764	177
3	631	75.087068149764	178
3	631	75.087068149764	179
3	636	77.087068149764	180
3	636	77.087068149764	181
3	637	77.087068149764	182
3	637	77.087068149764	183
3	642	77.163653094927	184
3	642	77.163653094927	185
3	642	77.163653094927	186
3	642	77.163653094927	187
3	642	77.163653094927	188
3	666	79.087068149764	189
3	666	79.087068149764	190
3	674	81.087068149764	191
3	674	81.087068149764	192
3	679	81.587068149764	193
3	679	81.587068149764	194
3	682	81.663653094927	195
3	682	81.663653094927	196
3	682	81.663653094927	197
3	682	81.663653094927	198
3	682	81.663653094927	199
3	704	83.087068149764	200
3	704	83.087068149764	201
3	712	85.087068149764	202
3	712	85.087068149764	203
3	717	86.087068149764	204
3	717	86.087068149764	205
3	720	86.163653094927	206
3	720	86.163653094927	207
3	720	86.163653094927	208
3	720	86.163653094927	209
3	720	86.163653094927	210
3	742	87.087068149764	211
3	742	87.087068149764	212
3	747	89.087068149764	213
3	747	89.087068149764	214
3	755	90.587068149764	215
3	755	90.587068149764	216
3	758	90.663653094927	217
3	758	90.663653094927	218
3	758	90.663653094927	219
3	758	90.663653094927	220
3	758	90.663653094927	221
3	776	91.087068149764	222
3	776	91.087068149764	223
3	785	93.087068149764	224
3	785	93.087068149764	225
3	793	95.087068149764	226
3	793	95.087068149764	227
3	794	95.087068149764	228
3	794	95.087068149764	229
3	799	95.163653094927	230
3	799	95.163653094927	231
3	799	95.163653094927	232
3	799	95.163653094927	233
3	799	95.163653094927	234
3	823	97.087068149764	235
3	823	97.087068149764	236
3	828	99.087068149764	237
3	828	99.087068149764	238
3	833	99.587068149764	239
3	833	99.587068149764	240
3	836	99.663653094927	241
3	836	99.663653094927	242
3	836	99.663653094927	243
3	836	99.663653094927	244
3	836	99.663653094927	245
3	861	101.087068149764	246
3	861	101.087068149764	247
3	866	103.087068149764	248
3	866	103.087068149764	249
3	871	104.087068149764	250
3	871	104.087068149764	251
3	874	104.163653094927	252
3	874	104.163653094927	253
3	874	104.163653094927	254
3	874	104.163653094927	255
3	874	104.163653094927	256
3	899	105.087068149764	257
3	899	105.087068149764	258
3	904	107.087068149764	259
3	904	107.087068149764	260
3	909	108.587068149764	261
3	909	108.587068149764	262
3	912	108.663653094927	263
3	912	108.663653094927	264
3	912	108.663653094927	265
3	912	108.663653094927	266
3	912	108.663653094927	267
3	930	109.087068149764	268
3	930	109.087068149764	269
3	942	111.087068149764	270
3	942	111.087068149764	271
3	947	113.087068149764	272
3	947	113.087068149764	273
3	948	113.087068149764	274
3	948	113.087068149764	275
3	953	113.163653094927	276
3	953	113.163653094927	277
3	953	113.163653094927	278
3	953	113.163653094927	279
3	953	113.163653094927	280
3	980	115.087068149764	281
3	980	115.087068149764	282
3	985	117.087068149764	283
3	985	117.087068149764	284
3	990	117.587068149764	285
3	990	117.587068149764	286
3	993	117.663653094927	287
3	993	117.663653094927	288
3	993	117.663653094927	289
3	993	117.663653094927	290
3	993	117.663653094927	291
3	1015	119.087068149764	292
3	1015	119.087068149764	293
3	1023	121.087068149764	294
3	1023	121.087068149764	295
3	1028	122.087068149764	296
3	1028	122.087068149764	297
3	1031	122.163653094927	298
3	1031	122.163653094927	299
3	1031	122.163653094927	300
3	1031	122.163653094927	301
3	1031	122.163653094927	302
3	1053	123.087068149764	303
3	1053	123.087068149764	304
3	1061	125.087068149764	305
3	1061	125.087068149764	306
3	1066	126.587068149764	307
3	1066	126.587068149764	308
3	1069	126.663653094927	309
3	1069	126.663653094927	310
3	1069	126.663653094927	311
3	1069	126.663653094927	312
3	1069	126.663653094927	313
3	1087	127.087068149764	314
3	1087	127.087068149764	315
3	1096	129.087068149764	316
3	1096	129.087068149764	317
3	1104	131.087068149764	318
3	1104	131.087068149764	319
3	1105	131.087068149764	320
3	1105	131.087068149764	321
3	1110	131.163653094927	322
3	1110	131.163653094927	323
3	1110	131.163653094927	324
3	1110	131.163653094927	325
3	1110	131.163653094927	326
3	1134	133.087068149764	327
3	1134	133.087068149764	328
3	1142	135.087068149764	329
3	1142	135.087068149764	330
3	1147	135.587068149764	331
3	1147	135.587068149764	332
3	1150	135.663653094927	333
3	1150	135.663653094927	334
3	1150	135.663653094927	335
3	1150	135.663653094927	336
3	1150	135.663653094927	337
3	1172	137.087068149764	338
3	1172	137.087068149764	339
3	1177	139.087068149764	340
3	1177	139.087068149764	341
3	1185	140.087068149764	342
3	1185	140.087068149764	343
3	1188	140.207876302039	344
3	1188	140.207876302039	345
3	1188	140.207876302039	346
3	1188	140.207876302039	347
3	1188	140.207876302039	348
3	1210	141.087068149764	349
3	1210	141.087068149764	350
3	1216	143.087068149764	351
3	1216	143.087068149764	352
3	1221	144.587068149764	353
3	1221	144.587068149764	354
3	1224	144.707876302039	355
3	1224	144.707876302039	356
3	1224	144.707876302039	357
3	1224	144.707876302039	358
3	1224	144.707876302039	359
3	1243	145.087068149764	360
3	1243	145.087068149764	361
3	1254	147.087068149764	362
3	1254	147.087068149764	363
3	1260	149.087068149764	364
3	1260	149.087068149764	365
3	1261	149.087068149764	366
3	1261	149.087068149764	367
3	1266	149.207876302039	368
3	1266	149.207876302039	369
3	1266	149.207876302039	370
3	1266	149.207876302039	371
3	1266	149.207876302039	372
3	1292	151.087068149764	373
3	1292	151.087068149764	374
3	1298	153.087068149764	375
3	1298	153.087068149764	376
3	1302	153.587068149764	377
3	1302	153.587068149764	378
3	1305	153.707876302039	379
3	1305	153.707876302039	380
3	1305	153.707876302039	381
3	1305	153.707876302039	382
3	1305	153.707876302039	383
3	1329	155.087068149764	384
3	1329	155.087068149764	385
3	1334	157.087068149764	386
3	1334	157.087068149764	387
3	1339	158.087068149764	388
3	1339	158.087068149764	389
3	1342	158.163653094927	390
3	1342	158.163653094927	391
3	1342	158.163653094927	392
3	1342	158.163653094927	393
3	1342	158.163653094927	394
3	1365	159.087068149764	395
3	1365	159.087068149764	396
3	1372	161.087068149764	397
3	1372	161.087068149764	398
3	1377	162.587068149764	399
3	1377	162.587068149764	400
3	1380	162.663653094927	401
3	1380	162.663653094927	402
3	1380	162.663653094927	403
3	1380	162.663653094927	404
3	1380	162.663653094927	405
3	1398	163.087068149764	406
3	1398	163.087068149764	407
3	1410	165.087068149764	408
3	1410	165.087068149764	409
3	1415	167.087068149764	410
3	1415	167.087068149764	411
3	1416	167.087068149764	412
3	1416	167.087068149764	413
3	1421	167.163653094927	414
3	1421	167.163653094927	415
3	1421	167.163653094927	416
3	1421	167.163653094927	417
3	1421	167.163653094927	418
3	1446	169.087068149764	419
3	1446	169.087068149764	420
3	1454	171.087068149764	421
3	1454	171.087068149764	422
3	1458	171.587068149764	423
3	1458	171.587068149764	424
3	1461	171.707876302039	425
3	1461	171.707876302039	426
3	1461	171.707876302039	427
3	1461	171.707876302039	428
3	1461	171.707876302039	429
3	1484	173.087068149764	430
3	1484	173.087068149764	431
3	1492	175.087068149764	432
3	1492	175.087068149764	433
3	1497	176.087068149764	434
3	1497	176.087068149764	435
3	1500	176.207876302039	436
3	1500	176.207876302039	437
3	1500	176.207876302039	438
3	1500	176.207876302039	439
3	1500	176.207876302039	440
3	1522	177.087068149764	441
3	1522	177.087068149764	442
3	1528	179.087068149764	443
3	1528	179.087068149764	444
3	1535	180.587068149764	445
3	1535	180.587068149764	446
3	1538	180.707876302039	447
3	1538	180.707876302039	448
3	1538	180.707876302039	449
3	1538	180.707876302039	450
3	1538	180.707876302039	451
3	1555	181.087068149764	452
3	1555	181.087068149764	453
3	1566	183.087068149764	454
3	1566	183.087068149764	455
3	1574	185.087068149764	456
3	1574	185.087068149764	457
3	1575	185.087068149764	458
3	1575	185.087068149764	459
3	1580	185.207876302039	460
3	1580	185.207876302039	461
3	1580	185.207876302039	462
3	1580	185.207876302039	463
3	1580	185.207876302039	464
3	1604	187.087068149764	465
3	1604	187.087068149764	466
3	1610	189.087068149764	467
3	1610	189.087068149764	468
3	1614	189.587068149764	469
3	1614	189.587068149764	470
3	1617	189.707876302039	471
3	1617	189.707876302039	472
3	1617	189.707876302039	473
3	1617	189.707876302039	474
3	1617	189.707876302039	475
3	1642	191.087068149764	476
3	1642	191.087068149764	477
3	1647	193.087068149764	478
3	1647	193.087068149764	479
3	1652	194.087068149764	480
3	1652	194.087068149764	481
3	1655	194.163653094927	482
3	1655	194.163653094927	483
3	1655	194.163653094927	484
3	1655	194.163653094927	485
3	1655	194.163653094927	486
3	1679	195.087068149764	487
3	1679	195.087068149764	488
3	1685	197.087068149764	489
3	1685	197.087068149764	490
3	1690	198.587068149764	491
3	1690	198.587068149764	492
3	1693	198.663653094927	493
3	1693	198.663653094927	494
3	1693	198.663653094927	495
3	1693	198.663653094927	496
3	1693	198.663653094927	497
3	1711	199.087068149764	498
3	1711	199.087068149764	499
3	1722	201.087068149764	500
3	1722	201.087068149764	501
3	1728	203.087068149764	502
3	1728	203.087068149764	503
3	1729	203.087068149764	504
3	1729	203.087068149764	505
3	1734	203.163653094927	506
3	1734	203.163653094927	507
3	1734	203.163653094927	508
3	1734	203.163653094927	509
3	1734	203.163653094927	510
3	1760	205.087068149764	511
3	1760	205.087068149764	512
3	1766	207.087068149764	513
3	1766	207.087068149764	514
3	1771	207.587068149764	515
3	1771	207.587068149764	516
3	1774	207.663653094927	517
3	1774	207.663653094927	518
3	1774	207.663653094927	519
3	1774	207.663653094927	520
3	1774	207.663653094927	521
3	1796	209.087068149764	522
3	1796	209.087068149764	523
3	1803	211.087068149764	524
3	1803	211.087068149764	525
3	1809	212.087068149764	526
3	1809	212.087068149764	527
3	1812	212.163653094927	528
3	1812	212.163653094927	529
3	1812	212.163653094927	530
3	1812	212.163653094927	531
3	1812	212.163653094927	532
3	1834	213.087068149764	533
3	1834	213.087068149764	534
3	1841	215.087068149764	535
3	1841	215.087068149764	536
3	1846	216.587068149764	537
3	1846	216.587068149764	538
3	1849	216.663653094927	539
3	1849	216.663653094927	540
3	1849	216.663653094927	541
3	1849	216.663653094927	542
3	1849	216.663653094927	543
3	1868	217.087068149764	544
3	1868	217.087068149764	545
3	1877	219.087068149764	546
3	1877	219.087068149764	547
3	1884	221.087068149764	548
3	1884	221.087068149764	549
3	1885	221.087068149764	550
3	1885	221.087068149764	551
3	1890	221.163653094927	552
3	1890	221.163653094927	553
3	1890	221.163653094927	554
3	1890	221.163653094927	555
3	1890	221.163653094927	556
3	1915	223.087068149764	557
3	1915	223.087068149764	558
3	1922	225.087068149764	559
3	1922	225.087068149764	560
3	1927	225.587068149764	561
3	1927	225.587068149764	562
3	1930	225.663653094927	563
3	1930	225.663653094927	564
3	1930	225.663653094927	565
3	1930	225.663653094927	566
3	1930	225.663653094927	567
3	1953	227.087068149764	568
3	1953	227.087068149764	569
3	1958	229.087068149764	570
3	1958	229.087068149764	571
3	1965	230.087068149764	572
3	1965	230.087068149764	573
3	1968	230.163653094927	574
3	1968	230.163653094927	575
3	1968	230.163653094927	576
3	1968	230.163653094927	577
3	1968	230.163653094927	578
3	1990	231.087068149764	579
3	1990	231.087068149764	580
3	1996	233.087068149764	581
3	1996	233.087068149764	582
3	2001	234.587068149764	583
3	2001	234.587068149764	584
3	2004	234.663653094927	585
3	2004	234.663653094927	586
3	2004	234.663653094927	587
3	2004	234.663653094927	588
3	2004	234.663653094927	589
3	2024	235.087068149764	590
3	2024	235.087068149764	591
3	2034	237.087068149764	592
3	2034	237.087068149764	593
3	2039	239.087068149764	594
3	2039	239.087068149764	595
3	2040	239.087068149764	596
3	2040	239.087068149764	597
3	2045	239.163653094927	598
3	2045	239.163653094927	599
3	2045	239.163653094927	600
3	2045	239.163653094927	601
3	2045	239.163653094927	602
3	2071	241.087068149764	603
3	2071	241.087068149764	604
3	2077	243.087068149764	605
3	2077	243.087068149764	606
3	2082	243.587068149764	607
3	2082	243.587068149764	608
3	2085	243.663653094927	609
3	2085	243.663653094927	610
3	2085	243.663653094927	611
3	2085	243.663653094927	612
3	2085	243.663653094927	613
3	2109	245.087068149764	614
3	2109	245.087068149764	615
3	2115	247.087068149764	616
3	2115	247.087068149764	617
3	2120	248.087068149764	618
3	2120	248.087068149764	619
3	2123	248.163653094927	620
3	2123	248.163653094927	621
3	2123	248.163653094927	622
3	2123	248.163653094927	623
3	2123	248.163653094927	624
3	2145	249.087068149764	625
3	2145	249.087068149764	626
3	2152	251.087068149764	627
3	2152	251.087068149764	628
3	2158	252.587068149764	629
3	2158	252.587068149764	630
3	2161	252.663653094927	631
3	2161	252.663653094927	632
3	2161	252.663653094927	633
3	2161	252.663653094927	634
3	2161	252.663653094927	635
3	2179	253.087068149764	636
3	2179	253.087068149764	637
3	2190	255.087068149764	638
3	2190	255.087068149764	639
3	2196	257.087068149764	640
3	2196	257.087068149764	641
3	2197	257.087068149764	642
3	2197	257.087068149764	643
3	2202	257.163653094927	644
3	2202	257.163653094927	645
3	2202	257.163653094927	646
3	2202	257.163653094927	647
3	2202	257.163653094927	648
3	2226	259.087068149764	649
3	2226	259.087068149764	650
3	2233	261.087068149764	651
3	2233	261.087068149764	652
3	2238	261.587068149764	653
3	2238	261.587068149764	654
3	2241	261.663653094927	655
3	2241	261.663653094927	656
3	2241	261.663653094927	657
3	2241	261.663653094927	658
3	2241	261.663653094927	659
3	2264	263.087068149764	660
3	2264	263.087068149764	661
3	2271	265.087068149764	662
3	2271	265.087068149764	663
3	2276	266.087068149764	664
3	2276	266.087068149764	665
3	2279	266.163653094927	666
3	2279	266.163653094927	667
3	2279	266.163653094927	668
3	2279	266.163653094927	669
3	2279	266.163653094927	670
3	2302	267.087068149764	671
3	2302	267.087068149764	672
3	2307	269.087068149764	673
3	2307	269.087068149764	674
3	2314	270.587068149764	675
3	2314	270.587068149764	676
3	2317	270.663653094927	677
3	2317	270.663653094927	678
3	2317	270.663653094927	679
3	2317	270.663653094927	680
3	2317	270.663653094927	681
3	2335	271.087068149764	682
3	2335	271.087068149764	683
3	2345	273.087068149764	684
3	2345	273.087068149764	685
3	2352	275.087068149764	686
3	2352	275.087068149764	687
3	2353	275.087068149764	688
3	2353	275.087068149764	689
3	2358	275.163653094927	690
3	2358	275.163653094927	691
3	2358	275.163653094927	692
3	2358	275.163653094927	693
3	2358	275.163653094927	694
3	2383	277.087068149764	695
3	2383	277.087068149764	696
3	2388	279.087068149764	697
3	2388	279.087068149764	698
3	2393	279.587068149764	699
3	2393	279.587068149764	700
3	2396	279.663653094927	701
3	2396	279.663653094927	702
3	2396	279.663653094927	703
3	2396	279.663653094927	704
3	2396	279.663653094927	705
3	2420	281.087068149764	706
3	2420	281.087068149764	707
3	2426	283.087068149764	708
3	2426	283.087068149764	709
3	2431	284.087068149764	710
3	2431	284.087068149764	711
3	2434	284.163653094927	712
3	2434	284.163653094927	713
3	2434	284.163653094927	714
3	2434	284.163653094927	715
3	2434	284.163653094927	716
3	2458	285.087068149764	717
3	2458	285.087068149764	718
3	2464	287.087068149764	719
3	2464	287.087068149764	720
3	2469	288.587068149764	721
3	2469	288.587068149764	722
3	2472	288.663653094927	723
3	2472	288.663653094927	724
3	2472	288.663653094927	725
3	2472	288.663653094927	726
3	2472	288.663653094927	727
3	2490	289.087068149764	728
3	2490	289.087068149764	729
3	2501	291.087068149764	730
3	2501	291.087068149764	731
3	2507	293.087068149764	732
3	2507	293.087068149764	733
3	2508	293.087068149764	734
3	2508	293.087068149764	735
3	2513	293.163653094927	736
3	2513	293.163653094927	737
3	2513	293.163653094927	738
3	2513	293.163653094927	739
3	2513	293.163653094927	740
3	2539	295.087068149764	741
3	2539	295.087068149764	742
3	2545	297.087068149764	743
3	2545	297.087068149764	744
3	2550	297.587068149764	745
3	2550	297.587068149764	746
3	2553	297.663653094927	747
3	2553	297.663653094927	748
3	2553	297.663653094927	749
3	2553	297.663653094927	750
3	2553	297.663653094927	751
3	2575	299.087068149764	752
3	2575	299.087068149764	753
3	2582	301.087068149764	754
3	2582	301.087068149764	755
3	2588	302.087068149764	756
3	2588	302.087068149764	757
3	2591	302.163653094927	758
3	2591	302.163653094927	759
3	2591	302.163653094927	760
3	2591	302.163653094927	761
3	2591	302.163653094927	762
3	2613	303.087068149764	763
3	2613	303.087068149764	764
3	2620	305.087068149764	765
3	2620	305.087068149764	766
3	2625	306.587068149764	767
3	2625	306.587068149764	768
3	2628	306.663653094927	769
3	2628	306.663653094927	770
3	2628	306.663653094927	771
3	2628	306.663653094927	772
3	2628	306.663653094927	773
3	2647	307.087068149764	774
3	2647	307.087068149764	775
3	2656	309.087068149764	776
3	2656	309.087068149764	777
3	2663	311.087068149764	778
3	2663	311.087068149764	779
3	2664	311.087068149764	780
3	2664	311.087068149764	781
3	2669	311.163653094927	782
3	2669	311.163653094927	783
3	2669	311.163653094927	784
3	2669	311.163653094927	785
3	2669	311.163653094927	786
3	2694	313.087068149764	787
3	2694	313.087068149764	788
3	2701	315.087068149764	789
3	2701	315.087068149764	790
3	2706	315.587068149764	791
3	2706	315.587068149764	792
3	2709	315.663653094927	793
3	2709	315.663653094927	794
3	2709	315.663653094927	795
3	2709	315.663653094927	796
3	2709	315.663653094927	797
3	2732	317.087068149764	798
3	2732	317.087068149764	799
3	2737	319.087068149764	800
3	2737	319.087068149764	801
3	2744	320.087068149764	802
3	2744	320.087068149764	803
3	2747	320.163653094927	804
3	2747	320.163653094927	805
3	2747	320.163653094927	806
3	2747	320.163653094927	807
3	2747	320.163653094927	808
3	2769	321.087068149764	809
3	2769	321.087068149764	810
3	2775	323.087068149764	811
3	2775	323.087068149764	812
3	2780	324.587068149764	813
3	2780	324.587068149764	814
3	2783	324.663653094927	815
3	2783	324.663653094927	816
3	2783	324.663653094927	817
3	2783	324.663653094927	818
3	2783	324.663653094927	819
3	2803	325.087068149764	820
3	2803	325.087068149764	821
3	2813	327.087068149764	822
3	2813	327.087068149764	823
3	2818	329.087068149764	824
3	2818	329.087068149764	825
3	2819	329.087068149764	826
3	2819	329.087068149764	827
3	2824	329.163653094927	828
3	2824	329.163653094927	829
3	2824	329.163653094927	830
3	2824	329.163653094927	831
3	2824	329.163653094927	832
3	2850	331.087068149764	833
3	2850	331.087068149764	834
3	2856	333.087068149764	835
3	2856	333.087068149764	836
3	2861	333.587068149764	837
3	2861	333.587068149764	838
3	2864	333.663653094927	839
3	2864	333.663653094927	840
3	2864	333.663653094927	841
3	2864	333.663653094927	842
3	2864	333.663653094927	843
3	2888	335.087068149764	844
3	2888	335.087068149764	845
3	2894	337.087068149764	846
3	2894	337.087068149764	847
3	2899	338.087068149764	848
3	2899	338.087068149764	849
3	2902	338.163653094927	850
3	2902	338.163653094927	851
3	2902	338.163653094927	852
3	2902	338.163653094927	853
3	2902	338.163653094927	854
3	2924	339.087068149764	855
3	2924	339.087068149764	856
3	3095	365.422347700162	857
3	3110	367.422347700162	858
3	3115	367.922347700162	859
3	3149	369.422347700162	860
3	3164	371.422347700162	861
3	3169	372.422347700162	862
3	3194	373.422347700162	863
3	3201	375.422347700162	864
3	3206	376.922347700162	865
3	3228	377.422347700162	866
3	3237	379.422347700162	867
3	3245	381.422347700162	868
3	3246	381.422347700162	869
3	3275	383.422347700162	870
3	3282	385.422347700162	871
3	3287	385.922347700162	872
3	3313	387.422347700162	873
3	3319	389.422347700162	874
3	3326	390.422347700162	875
3	3351	391.422347700162	876
3	3357	393.422347700162	877
3	3362	394.922347700162	878
3	3385	395.422347700162	879
3	3395	397.422347700162	880
3	3402	399.422347700162	881
3	3403	399.422347700162	882
3	3433	401.422347700162	883
3	3439	403.422347700162	884
3	3443	403.922347700162	885
3	3471	405.422347700162	886
3	3477	407.422347700162	887
3	3482	408.422347700162	888
3	3507	409.422347700162	889
3	3518	414.432830904763	890
3	3518	414.432830904763	891
3	3521	414.509415849926	892
3	3521	414.509415849926	893
3	3548	416.509415849926	894
3	3548	416.509415849926	895
3	3557	418.509415849926	896
3	3557	418.509415849926	897
3	3562	419.009415849926	898
3	3562	419.009415849926	899
3	3565	419.086000795089	900
3	3565	419.086000795089	901
3	3565	419.086000795089	902
3	3580	420.509415849926	903
3	3580	420.509415849926	904
3	3589	422.509415849926	905
3	3589	422.509415849926	906
3	3595	423.509415849926	907
3	3595	423.509415849926	908
3	3598	423.586000795089	909
3	3598	423.586000795089	910
3	3598	423.586000795089	911
3	3598	423.586000795089	912
3	3616	424.509415849926	913
3	3616	424.509415849926	914
3	3629	426.509415849926	915
3	3629	426.509415849926	916
3	3636	428.009415849926	917
3	3636	428.009415849926	918
3	3639	428.086000795089	919
3	3639	428.086000795089	920
3	3639	428.086000795089	921
3	3639	428.086000795089	922
3	3639	428.086000795089	923
3	3657	428.509415849926	924
3	3657	428.509415849926	925
3	3667	430.509415849926	926
3	3667	430.509415849926	927
3	3673	432.509415849926	928
3	3673	432.509415849926	929
3	3674	432.509415849926	930
3	3674	432.509415849926	931
3	3679	432.586000795089	932
3	3679	432.586000795089	933
3	3679	432.586000795089	934
3	3679	432.586000795089	935
3	3679	432.586000795089	936
3	3704	434.509415849926	937
3	3704	434.509415849926	938
3	3710	436.509415849926	939
3	3710	436.509415849926	940
3	3716	437.009415849926	941
3	3716	437.009415849926	942
3	3719	437.086000795089	943
3	3719	437.086000795089	944
3	3719	437.086000795089	945
3	3719	437.086000795089	946
3	3719	437.086000795089	947
3	3742	438.509415849926	948
3	3742	438.509415849926	949
3	3748	440.509415849926	950
3	3748	440.509415849926	951
3	3753	441.509415849926	952
3	3753	441.509415849926	953
3	3756	441.586000795089	954
3	3756	441.586000795089	955
3	3756	441.586000795089	956
3	3756	441.586000795089	957
3	3756	441.586000795089	958
3	3779	442.509415849926	959
3	3779	442.509415849926	960
3	3785	444.509415849926	961
3	3785	444.509415849926	962
3	3791	446.009415849926	963
3	3791	446.009415849926	964
3	3794	446.086000795089	965
3	3794	446.086000795089	966
3	3794	446.086000795089	967
3	3794	446.086000795089	968
3	3794	446.086000795089	969
3	3812	446.509415849926	970
3	3812	446.509415849926	971
3	3824	448.509415849926	972
3	3824	448.509415849926	973
3	3831	450.509415849926	974
3	3831	450.509415849926	975
3	3832	450.509415849926	976
3	3832	450.509415849926	977
3	3837	450.586000795089	978
3	3837	450.586000795089	979
3	3837	450.586000795089	980
3	3837	450.586000795089	981
3	3837	450.586000795089	982
3	3860	452.509415849926	983
3	3860	452.509415849926	984
3	3866	454.509415849926	985
3	3866	454.509415849926	986
3	3872	455.009415849926	987
3	3872	455.009415849926	988
3	3875	455.086000795089	989
3	3875	455.086000795089	990
3	3875	455.086000795089	991
3	3875	455.086000795089	992
3	3875	455.086000795089	993
3	3898	456.509415849926	994
3	3898	456.509415849926	995
3	3904	458.509415849926	996
3	3904	458.509415849926	997
3	3909	459.509415849926	998
3	3909	459.509415849926	999
3	3912	459.586000795089	1000
3	3912	459.586000795089	1001
3	3912	459.586000795089	1002
3	3912	459.586000795089	1003
3	3912	459.586000795089	1004
3	3935	460.509415849926	1005
3	3935	460.509415849926	1006
3	3941	462.509415849926	1007
3	3941	462.509415849926	1008
3	3947	464.009415849926	1009
3	3947	464.009415849926	1010
3	3950	464.086000795089	1011
3	3950	464.086000795089	1012
3	3950	464.086000795089	1013
3	3950	464.086000795089	1014
3	3950	464.086000795089	1015
3	3968	464.509415849926	1016
3	3968	464.509415849926	1017
3	3979	466.509415849926	1018
3	3979	466.509415849926	1019
3	3985	468.509415849926	1020
3	3985	468.509415849926	1021
3	3986	468.509415849926	1022
3	3986	468.509415849926	1023
3	3991	468.630224002201	1024
3	3991	468.630224002201	1025
3	3991	468.630224002201	1026
3	3991	468.630224002201	1027
3	3991	468.630224002201	1028
3	4015	470.509415849926	1029
3	4015	470.509415849926	1030
3	4021	472.509415849926	1031
3	4021	472.509415849926	1032
3	4026	473.009415849926	1033
3	4026	473.009415849926	1034
3	4029	473.086000795089	1035
3	4029	473.086000795089	1036
3	4029	473.086000795089	1037
3	4029	473.086000795089	1038
3	4029	473.086000795089	1039
3	4052	474.509415849926	1040
3	4052	474.509415849926	1041
3	4059	476.509415849926	1042
3	4059	476.509415849926	1043
3	4064	477.509415849926	1044
3	4064	477.509415849926	1045
3	4067	477.586000795089	1046
3	4067	477.586000795089	1047
3	4067	477.586000795089	1048
3	4067	477.586000795089	1049
3	4067	477.586000795089	1050
3	4089	478.509415849926	1051
3	4089	478.509415849926	1052
3	4096	480.509415849926	1053
3	4096	480.509415849926	1054
3	4102	482.009415849926	1055
3	4102	482.009415849926	1056
3	4105	482.086000795089	1057
3	4105	482.086000795089	1058
3	4105	482.086000795089	1059
3	4105	482.086000795089	1060
3	4105	482.086000795089	1061
3	4123	482.509415849926	1062
3	4123	482.509415849926	1063
3	4133	484.509415849926	1064
3	4133	484.509415849926	1065
3	4140	486.509415849926	1066
3	4140	486.509415849926	1067
3	4141	486.509415849926	1068
3	4141	486.509415849926	1069
3	4146	486.586000795089	1070
3	4146	486.586000795089	1071
3	4146	486.586000795089	1072
3	4146	486.586000795089	1073
3	4146	486.586000795089	1074
3	4170	488.509415849926	1075
3	4170	488.509415849926	1076
3	4177	490.509415849926	1077
3	4177	490.509415849926	1078
3	4183	491.009415849926	1079
3	4183	491.009415849926	1080
3	4186	491.086000795089	1081
3	4186	491.086000795089	1082
3	4186	491.086000795089	1083
3	4186	491.086000795089	1084
3	4186	491.086000795089	1085
3	4208	492.509415849926	1086
3	4208	492.509415849926	1087
3	4214	494.509415849926	1088
3	4214	494.509415849926	1089
3	4220	495.509415849926	1090
3	4220	495.509415849926	1091
3	4223	495.586000795089	1092
3	4223	495.586000795089	1093
3	4223	495.586000795089	1094
3	4223	495.586000795089	1095
3	4223	495.586000795089	1096
3	4246	496.509415849926	1097
3	4246	496.509415849926	1098
3	4251	498.509415849926	1099
3	4251	498.509415849926	1100
3	4258	500.009415849926	1101
3	4258	500.009415849926	1102
3	4261	500.086000795089	1103
3	4261	500.086000795089	1104
3	4261	500.086000795089	1105
3	4261	500.086000795089	1106
3	4261	500.086000795089	1107
3	4279	500.509415849926	1108
3	4279	500.509415849926	1109
3	4289	502.509415849926	1110
3	4289	502.509415849926	1111
3	4295	504.509415849926	1112
3	4295	504.509415849926	1113
3	4296	504.509415849926	1114
3	4296	504.509415849926	1115
3	4301	504.586000795089	1116
3	4301	504.586000795089	1117
3	4301	504.586000795089	1118
3	4301	504.586000795089	1119
3	4301	504.586000795089	1120
3	4327	506.509415849926	1121
3	4327	506.509415849926	1122
3	4332	508.509415849926	1123
3	4332	508.509415849926	1124
3	4338	509.009415849926	1125
3	4338	509.009415849926	1126
3	4341	509.086000795089	1127
3	4341	509.086000795089	1128
3	4341	509.086000795089	1129
3	4341	509.086000795089	1130
3	4341	509.086000795089	1131
3	4364	510.509415849926	1132
3	4364	510.509415849926	1133
3	4370	512.509415849926	1134
3	4370	512.509415849926	1135
3	4375	513.509415849926	1136
3	4375	513.509415849926	1137
3	4378	513.586000795089	1138
3	4378	513.586000795089	1139
3	4378	513.586000795089	1140
3	4378	513.586000795089	1141
3	4378	513.586000795089	1142
3	4401	514.509415849926	1143
3	4401	514.509415849926	1144
3	4408	516.509415849926	1145
3	4408	516.509415849926	1146
3	4413	518.009415849926	1147
3	4413	518.009415849926	1148
3	4416	518.086000795089	1149
3	4416	518.086000795089	1150
3	4416	518.086000795089	1151
3	4416	518.086000795089	1152
3	4416	518.086000795089	1153
3	4434	518.509415849926	1154
3	4434	518.509415849926	1155
3	4445	520.509415849926	1156
3	4445	520.509415849926	1157
3	4451	522.509415849926	1158
3	4451	522.509415849926	1159
3	4452	522.509415849926	1160
3	4452	522.509415849926	1161
3	4457	522.586000795089	1162
3	4457	522.586000795089	1163
3	4457	522.586000795089	1164
3	4457	522.586000795089	1165
3	4457	522.586000795089	1166
3	4482	524.509415849926	1167
3	4482	524.509415849926	1168
3	4489	526.509415849926	1169
3	4489	526.509415849926	1170
3	4494	527.009415849926	1171
3	4494	527.009415849926	1172
3	4497	527.086000795089	1173
3	4497	527.086000795089	1174
3	4497	527.086000795089	1175
3	4497	527.086000795089	1176
3	4497	527.086000795089	1177
3	4519	528.509415849926	1178
3	4519	528.509415849926	1179
3	4526	530.509415849926	1180
3	4526	530.509415849926	1181
3	4532	531.509415849926	1182
3	4532	531.509415849926	1183
3	4535	531.586000795089	1184
3	4535	531.586000795089	1185
3	4535	531.586000795089	1186
3	4535	531.586000795089	1187
3	4535	531.586000795089	1188
3	4557	532.509415849926	1189
3	4557	532.509415849926	1190
3	4563	534.509415849926	1191
3	4563	534.509415849926	1192
3	4570	536.009415849926	1193
3	4570	536.009415849926	1194
3	4573	536.086000795089	1195
3	4573	536.086000795089	1196
3	4573	536.086000795089	1197
3	4573	536.086000795089	1198
3	4573	536.086000795089	1199
3	4591	536.509415849926	1200
3	4591	536.509415849926	1201
3	4600	538.509415849926	1202
3	4600	538.509415849926	1203
3	4607	540.509415849926	1204
3	4607	540.509415849926	1205
3	4608	540.509415849926	1206
3	4608	540.509415849926	1207
3	4613	540.586000795089	1208
3	4613	540.586000795089	1209
3	4613	540.586000795089	1210
3	4613	540.586000795089	1211
3	4613	540.586000795089	1212
3	4638	542.509415849926	1213
3	4638	542.509415849926	1214
3	4644	544.509415849926	1215
3	4644	544.509415849926	1216
3	4879	573.344695400324	1217
3	4905	574.844695400324	1218
3	4911	576.844695400324	1219
3	4916	577.844695400324	1220
3	4942	578.844695400324	1221
3	4948	580.844695400324	1222
3	4954	582.344695400324	1223
3	4975	582.844695400324	1224
3	4986	584.844695400324	1225
3	4993	586.844695400324	1226
3	4994	586.844695400324	1227
3	5023	588.844695400324	1228
3	5029	590.844695400324	1229
3	5035	591.344695400324	1230
3	5060	592.844695400324	1231
3	5067	594.844695400324	1232
3	5072	595.844695400324	1233
3	5098	596.844695400324	1234
3	5104	598.844695400324	1235
3	5110	600.344695400324	1236
3	5131	600.844695400324	1237
3	5141	602.844695400324	1238
3	5149	604.844695400324	1239
3	5150	604.844695400324	1240
3	5179	606.844695400324	1241
3	5185	608.844695400324	1242
3	5191	609.344695400324	1243
3	5216	610.844695400324	1244
3	5222	612.844695400324	1245
3	5228	613.844695400324	1246
3	5254	614.844695400324	1247
3	5260	616.844695400324	1248
3	5266	618.344695400324	1249
3	5287	618.844695400324	1250
3	5297	620.844695400324	1251
3	5304	622.844695400324	1252
3	5305	622.844695400324	1253
3	5335	624.844695400324	1254
3	5341	626.844695400324	1255
3	5346	627.344695400324	1256
3	5372	628.844695400324	1257
3	5378	630.844695400324	1258
3	5384	631.844695400324	1259
3	5409	632.844695400324	1260
3	5416	634.844695400324	1261
3	5422	636.344695400324	1262
3	5443	636.844695400324	1263
3	5453	638.844695400324	1264
3	5460	640.844695400324	1265
3	5461	640.844695400324	1266
3	5490	642.844695400324	1267
3	5497	644.844695400324	1268
3	5502	645.344695400324	1269
3	5528	646.844695400324	1270
3	5534	648.844695400324	1271
3	5540	649.844695400324	1272
3	5565	650.844695400324	1273
3	5571	652.844695400324	1274
3	5578	654.344695400324	1275
3	5599	654.844695400324	1276
3	5609	656.844695400324	1277
3	5645	660.844695400324	1278
3	5651	662.844695400324	1279
3	5656	663.344695400324	1280
3	5683	664.844695400324	1281
3	5689	666.844695400324	1282
3	5694	667.844695400324	1283
3	5719	668.844695400324	1284
3	5726	670.844695400324	1285
3	5732	672.344695400324	1286
3	5753	672.844695400324	1287
3	5764	674.844695400324	1288
3	5771	676.844695400324	1289
3	5772	676.844695400324	1290
3	5800	678.844695400324	1291
3	5807	680.844695400324	1292
3	5845	685.855178604925	1293
3	5845	685.855178604925	1294
3	5848	685.931763550088	1295
3	5848	685.931763550088	1296
3	5854	687.931763550088	1297
3	5854	687.931763550088	1298
3	5865	689.931763550088	1299
3	5865	689.931763550088	1300
3	5872	690.431763550088	1301
3	5872	690.431763550088	1302
3	5887	691.931763550088	1303
3	5887	691.931763550088	1304
3	5901	693.931763550088	1305
3	5901	693.931763550088	1306
3	5908	694.931763550088	1307
3	5908	694.931763550088	1308
3	5911	695.008348495251	1309
3	5911	695.008348495251	1310
3	5911	695.008348495251	1311
3	5927	695.931763550088	1312
3	5927	695.931763550088	1313
3	5940	697.931763550088	1314
3	5940	697.931763550088	1315
3	5948	699.431763550088	1316
3	5948	699.431763550088	1317
3	5951	699.508348495251	1318
3	5951	699.508348495251	1319
3	5951	699.508348495251	1320
3	5951	699.508348495251	1321
3	5951	699.508348495251	1322
3	5969	699.931763550088	1323
3	5969	699.931763550088	1324
3	5978	701.931763550088	1325
3	5978	701.931763550088	1326
3	5984	703.931763550088	1327
3	5984	703.931763550088	1328
3	5985	703.931763550088	1329
3	5985	703.931763550088	1330
3	5992	704.008348495251	1331
3	5992	704.008348495251	1332
3	5992	704.008348495251	1333
3	5992	704.008348495251	1334
3	5992	704.008348495251	1335
3	6016	705.931763550088	1336
3	6016	705.931763550088	1337
3	6021	707.931763550088	1338
3	6021	707.931763550088	1339
3	6027	708.431763550088	1340
3	6027	708.431763550088	1341
3	6030	708.508348495251	1342
3	6030	708.508348495251	1343
3	6030	708.508348495251	1344
3	6030	708.508348495251	1345
3	6030	708.508348495251	1346
3	6054	709.931763550088	1347
3	6054	709.931763550088	1348
3	6059	711.931763550088	1349
3	6059	711.931763550088	1350
3	6064	712.931763550088	1351
3	6064	712.931763550088	1352
3	6068	713.008348495251	1353
3	6068	713.008348495251	1354
3	6068	713.008348495251	1355
3	6068	713.008348495251	1356
3	6068	713.008348495251	1357
3	6090	713.931763550088	1358
3	6090	713.931763550088	1359
3	6097	715.931763550088	1360
3	6097	715.931763550088	1361
3	6102	717.431763550088	1362
3	6102	717.431763550088	1363
3	6105	717.508348495251	1364
3	6105	717.508348495251	1365
3	6105	717.508348495251	1366
3	6105	717.508348495251	1367
3	6105	717.508348495251	1368
3	6123	717.931763550088	1369
3	6123	717.931763550088	1370
3	6135	719.931763550088	1371
3	6135	719.931763550088	1372
3	6140	721.931763550088	1373
3	6140	721.931763550088	1374
3	6141	721.931763550088	1375
3	6141	721.931763550088	1376
3	6146	722.008348495251	1377
3	6146	722.008348495251	1378
3	6146	722.008348495251	1379
3	6146	722.008348495251	1380
3	6146	722.008348495251	1381
3	6171	723.931763550088	1382
3	6171	723.931763550088	1383
3	6312	743.767043100486	1384
3	6331	744.267043100486	1385
3	6339	746.267043100486	1386
3	6347	748.267043100486	1387
3	6348	748.267043100486	1388
3	6380	750.267043100486	1389
3	6385	752.267043100486	1390
3	6390	752.767043100486	1391
3	6418	754.267043100486	1392
3	6423	756.267043100486	1393
3	6428	757.267043100486	1394
3	6455	758.267043100486	1395
3	6461	760.267043100486	1396
3	6466	761.767043100486	1397
3	6487	762.267043100486	1398
3	6499	764.267043100486	1399
3	6505	766.267043100486	1400
3	6506	766.267043100486	1401
3	6536	768.267043100486	1402
3	6542	770.267043100486	1403
3	6547	770.767043100486	1404
3	6572	772.267043100486	1405
3	6580	774.267043100486	1406
3	6585	775.267043100486	1407
3	6610	776.267043100486	1408
3	6617	778.267043100486	1409
3	6623	779.767043100486	1410
3	6644	780.267043100486	1411
3	6653	782.267043100486	1412
3	6662	784.267043100486	1413
3	6663	784.267043100486	1414
3	6691	786.267043100486	1415
3	6698	788.267043100486	1416
3	6703	788.767043100486	1417
3	6729	790.267043100486	1418
3	6734	792.267043100486	1419
3	6741	793.267043100486	1420
3	6767	794.267043100486	1421
3	6772	796.267043100486	1422
3	6777	797.767043100486	1423
3	6800	798.267043100486	1424
3	6810	800.267043100486	1425
3	6816	802.267043100486	1426
3	6817	802.267043100486	1427
3	6848	804.267043100486	1428
3	6853	806.267043100486	1429
3	6858	806.767043100486	1430
3	6885	808.267043100486	1431
3	6891	810.267043100486	1432
3	6896	811.267043100486	1433
3	6921	812.267043100486	1434
3	6929	814.267043100486	1435
3	6934	815.767043100486	1436
3	6955	816.267043100486	1437
3	6966	818.267043100486	1438
3	6973	820.267043100486	1439
3	6974	820.267043100486	1440
3	7002	822.267043100486	1441
3	7010	824.267043100486	1442
3	7015	824.767043100486	1443
3	7040	826.267043100486	1444
3	7047	828.267043100486	1445
3	7053	829.267043100486	1446
3	7078	830.267043100486	1447
3	7083	832.267043100486	1448
3	7090	833.767043100486	1449
3	7112	834.267043100486	1450
3	7121	836.267043100486	1451
3	7129	838.267043100486	1452
3	7130	838.267043100486	1453
3	7159	840.267043100486	1454
3	7164	842.267043100486	1455
3	7169	842.767043100486	1456
3	7197	844.267043100486	1457
3	7202	846.267043100486	1458
3	7207	847.267043100486	1459
3	7234	848.267043100486	1460
3	7240	850.267043100486	1461
3	7245	851.767043100486	1462
3	7266	852.267043100486	1463
3	7278	854.267043100486	1464
3	7284	856.267043100486	1465
3	7285	856.267043100486	1466
3	7315	858.267043100486	1467
3	7321	860.267043100486	1468
3	7326	860.767043100486	1469
3	7351	862.267043100486	1470
3	7359	864.267043100486	1471
3	7364	865.267043100486	1472
3	7389	866.267043100486	1473
3	7396	868.267043100486	1474
3	7402	869.767043100486	1475
3	7423	870.267043100486	1476
3	7432	872.267043100486	1477
3	7441	874.267043100486	1478
3	7442	874.267043100486	1479
3	7470	876.267043100486	1480
3	7477	878.267043100486	1481
3	7482	878.767043100486	1482
3	7508	880.267043100486	1483
3	7513	882.267043100486	1484
3	7520	883.267043100486	1485
3	7546	884.267043100486	1486
3	7551	886.267043100486	1487
3	7556	887.767043100486	1488
3	7579	888.267043100486	1489
3	7589	890.267043100486	1490
3	7595	892.267043100486	1491
3	7596	892.267043100486	1492
3	7627	894.267043100486	1493
3	7632	896.267043100486	1494
3	7637	896.767043100486	1495
3	7664	898.267043100486	1496
3	7670	900.267043100486	1497
3	7675	901.267043100486	1498
3	7700	902.267043100486	1499
3	7708	904.267043100486	1500
3	7713	905.767043100486	1501
3	7734	906.267043100486	1502
3	7745	908.267043100486	1503
3	7752	910.267043100486	1504
3	7753	910.267043100486	1505
3	7781	912.267043100486	1506
3	7789	914.267043100486	1507
3	7794	914.767043100486	1508
3	7819	916.267043100486	1509
3	7826	918.267043100486	1510
3	7832	919.267043100486	1511
3	7857	920.267043100486	1512
3	7862	922.267043100486	1513
3	7869	923.767043100486	1514
3	7891	924.267043100486	1515
3	7900	926.267043100486	1516
3	7908	928.267043100486	1517
3	7909	928.267043100486	1518
3	7938	930.267043100486	1519
3	7943	932.267043100486	1520
3	7948	932.767043100486	1521
3	7976	934.267043100486	1522
3	7981	936.267043100486	1523
3	7986	937.267043100486	1524
3	8013	938.267043100486	1525
3	8019	940.267043100486	1526
3	8024	941.767043100486	1527
3	8045	942.267043100486	1528
3	8057	944.267043100486	1529
3	8063	946.267043100486	1530
3	8064	946.267043100486	1531
3	8094	948.267043100486	1532
3	8100	950.267043100486	1533
3	8105	950.767043100486	1534
3	8130	952.267043100486	1535
3	8138	954.267043100486	1536
3	8143	955.267043100486	1537
3	8168	956.267043100486	1538
3	8175	958.267043100486	1539
3	8181	959.767043100486	1540
3	8202	960.267043100486	1541
3	8211	962.267043100486	1542
3	8220	964.267043100486	1543
3	8221	964.267043100486	1544
3	8249	966.267043100486	1545
3	8256	968.267043100486	1546
3	8261	968.767043100486	1547
3	8287	970.267043100486	1548
3	8292	972.267043100486	1549
3	8299	973.267043100486	1550
3	8325	974.267043100486	1551
3	8330	976.267043100486	1552
3	8335	977.767043100486	1553
3	8358	978.267043100486	1554
3	8368	980.267043100486	1555
3	8374	982.267043100486	1556
3	8375	982.267043100486	1557
3	8406	984.267043100486	1558
3	8411	986.267043100486	1559
3	8416	986.767043100486	1560
3	8443	988.267043100486	1561
3	8449	990.267043100486	1562
3	8454	991.267043100486	1563
3	8479	992.267043100486	1564
3	8487	994.267043100486	1565
3	8492	995.767043100486	1566
3	8513	996.267043100486	1567
3	8524	998.267043100486	1568
3	8531	1000.267043100486	1569
3	8532	1000.267043100486	1570
3	8560	1002.267043100486	1571
3	8568	1004.267043100486	1572
3	8573	1004.767043100486	1573
3	8598	1006.267043100486	1574
3	8609	1011.277526305087	1575
3	8609	1011.277526305087	1576
3	8614	1011.35411125025	1577
3	8614	1011.35411125025	1578
3	8636	1013.35411125025	1579
3	8636	1013.35411125025	1580
3	8648	1015.35411125025	1581
3	8648	1015.35411125025	1582
3	8652	1015.85411125025	1583
3	8652	1015.85411125025	1584
3	8655	1015.930696195413	1585
3	8655	1015.930696195413	1586
3	8655	1015.930696195413	1587
3	8655	1015.930696195413	1588
3	8655	1015.930696195413	1589
3	8678	1017.35411125025	1590
3	8678	1017.35411125025	1591
3	8686	1019.35411125025	1592
3	8686	1019.35411125025	1593
3	8691	1020.35411125025	1594
3	8691	1020.35411125025	1595
3	8694	1020.430696195413	1596
3	8694	1020.430696195413	1597
3	8694	1020.430696195413	1598
3	8694	1020.430696195413	1599
3	8694	1020.430696195413	1600
3	8716	1021.35411125025	1601
3	8716	1021.35411125025	1602
3	8723	1023.35411125025	1603
3	8723	1023.35411125025	1604
3	8729	1024.85411125025	1605
3	8729	1024.85411125025	1606
3	8732	1024.930696195413	1607
3	8732	1024.930696195413	1608
3	8732	1024.930696195413	1609
3	8732	1024.930696195413	1610
3	8732	1024.930696195413	1611
3	8750	1025.35411125025	1612
3	8750	1025.35411125025	1613
3	8760	1027.35411125025	1614
3	8760	1027.35411125025	1615
3	8768	1029.35411125025	1616
3	8768	1029.35411125025	1617
3	8769	1029.35411125025	1618
3	8769	1029.35411125025	1619
3	8774	1029.430696195413	1620
3	8774	1029.430696195413	1621
3	8774	1029.430696195413	1622
3	8774	1029.430696195413	1623
3	8774	1029.430696195413	1624
3	8798	1031.35411125025	1625
3	8798	1031.35411125025	1626
3	8805	1033.35411125025	1627
3	8805	1033.35411125025	1628
3	8809	1033.85411125025	1629
3	8809	1033.85411125025	1630
3	8812	1033.930696195413	1631
3	8812	1033.930696195413	1632
3	8812	1033.930696195413	1633
3	8812	1033.930696195413	1634
3	8812	1033.930696195413	1635
3	8836	1035.35411125025	1636
3	8836	1035.35411125025	1637
3	8842	1037.35411125025	1638
3	8842	1037.35411125025	1639
3	8848	1038.35411125025	1640
3	8848	1038.35411125025	1641
3	8851	1038.430696195413	1642
3	8851	1038.430696195413	1643
3	8851	1038.430696195413	1644
3	8851	1038.430696195413	1645
3	8851	1038.430696195413	1646
3	8874	1039.35411125025	1647
3	8874	1039.35411125025	1648
3	8880	1041.35411125025	1649
3	8880	1041.35411125025	1650
3	8885	1042.85411125025	1651
3	8885	1042.85411125025	1652
3	8888	1042.930696195413	1653
3	8888	1042.930696195413	1654
3	8888	1042.930696195413	1655
3	8888	1042.930696195413	1656
3	8888	1042.930696195413	1657
3	8907	1043.35411125025	1658
3	8907	1043.35411125025	1659
3	8918	1045.35411125025	1660
3	8918	1045.35411125025	1661
3	8924	1047.35411125025	1662
3	8924	1047.35411125025	1663
3	8925	1047.35411125025	1664
3	8925	1047.35411125025	1665
3	8930	1047.430696195413	1666
3	8930	1047.430696195413	1667
3	8930	1047.430696195413	1668
3	8930	1047.430696195413	1669
3	8930	1047.430696195413	1670
3	8956	1049.35411125025	1671
3	8956	1049.35411125025	1672
3	8962	1051.35411125025	1673
3	8962	1051.35411125025	1674
3	8966	1051.85411125025	1675
3	8966	1051.85411125025	1676
3	8969	1051.930696195413	1677
3	8969	1051.930696195413	1678
3	8969	1051.930696195413	1679
3	8969	1051.930696195413	1680
3	8969	1051.930696195413	1681
3	8993	1053.35411125025	1682
3	8993	1053.35411125025	1683
3	8999	1055.35411125025	1684
3	8999	1055.35411125025	1685
3	9004	1056.35411125025	1686
3	9004	1056.35411125025	1687
3	9007	1056.430696195413	1688
3	9007	1056.430696195413	1689
3	9007	1056.430696195413	1690
3	9007	1056.430696195413	1691
3	9007	1056.430696195413	1692
3	9029	1057.35411125025	1693
3	9029	1057.35411125025	1694
3	9037	1059.35411125025	1695
3	9037	1059.35411125025	1696
3	9042	1060.85411125025	1697
3	9042	1060.85411125025	1698
3	9045	1060.930696195413	1699
3	9045	1060.930696195413	1700
3	9045	1060.930696195413	1701
3	9045	1060.930696195413	1702
3	9045	1060.930696195413	1703
3	9063	1061.35411125025	1704
3	9063	1061.35411125025	1705
3	9074	1063.35411125025	1706
3	9074	1063.35411125025	1707
3	9080	1065.35411125025	1708
3	9080	1065.35411125025	1709
3	9081	1065.35411125025	1710
3	9081	1065.35411125025	1711
3	9086	1065.430696195413	1712
3	9086	1065.430696195413	1713
3	9086	1065.430696195413	1714
3	9086	1065.430696195413	1715
3	9086	1065.430696195413	1716
3	9110	1067.35411125025	1717
3	9110	1067.35411125025	1718
3	9118	1069.35411125025	1719
3	9118	1069.35411125025	1720
3	9123	1069.85411125025	1721
3	9123	1069.85411125025	1722
3	9126	1069.930696195413	1723
3	9126	1069.930696195413	1724
3	9126	1069.930696195413	1725
3	9126	1069.930696195413	1726
3	9126	1069.930696195413	1727
3	9148	1071.35411125025	1728
3	9148	1071.35411125025	1729
3	9155	1073.35411125025	1730
3	9155	1073.35411125025	1731
3	9161	1074.35411125025	1732
3	9161	1074.35411125025	1733
3	9164	1074.430696195413	1734
3	9164	1074.430696195413	1735
3	9164	1074.430696195413	1736
3	9164	1074.430696195413	1737
3	9164	1074.430696195413	1738
3	9186	1075.35411125025	1739
3	9186	1075.35411125025	1740
3	9191	1077.35411125025	1741
3	9191	1077.35411125025	1742
3	9198	1078.85411125025	1743
3	9198	1078.85411125025	1744
3	9201	1078.930696195413	1745
3	9201	1078.930696195413	1746
3	9201	1078.930696195413	1747
3	9201	1078.930696195413	1748
3	9201	1078.930696195413	1749
3	9220	1079.35411125025	1750
3	9220	1079.35411125025	1751
3	9229	1081.35411125025	1752
3	9229	1081.35411125025	1753
3	9236	1083.35411125025	1754
3	9236	1083.35411125025	1755
3	9237	1083.35411125025	1756
3	9237	1083.35411125025	1757
3	9242	1083.430696195413	1758
3	9242	1083.430696195413	1759
3	9242	1083.430696195413	1760
3	9242	1083.430696195413	1761
3	9242	1083.430696195413	1762
3	9267	1085.35411125025	1763
3	9267	1085.35411125025	1764
3	9272	1087.35411125025	1765
3	9272	1087.35411125025	1766
3	9277	1087.85411125025	1767
3	9277	1087.85411125025	1768
3	9280	1087.930696195413	1769
3	9280	1087.930696195413	1770
3	9280	1087.930696195413	1771
3	9280	1087.930696195413	1772
3	9280	1087.930696195413	1773
3	9305	1089.35411125025	1774
3	9305	1089.35411125025	1775
3	9310	1091.35411125025	1776
3	9310	1091.35411125025	1777
3	9315	1092.35411125025	1778
3	9315	1092.35411125025	1779
3	9318	1092.430696195413	1780
3	9318	1092.430696195413	1781
3	9318	1092.430696195413	1782
3	9318	1092.430696195413	1783
3	9318	1092.430696195413	1784
3	9342	1093.35411125025	1785
3	9342	1093.35411125025	1786
3	9348	1095.35411125025	1787
3	9348	1095.35411125025	1788
3	9353	1096.85411125025	1789
3	9353	1096.85411125025	1790
3	9356	1096.930696195413	1791
3	9356	1096.930696195413	1792
3	9356	1096.930696195413	1793
3	9356	1096.930696195413	1794
3	9356	1096.930696195413	1795
3	9374	1097.35411125025	1796
3	9374	1097.35411125025	1797
3	9386	1099.35411125025	1798
3	9386	1099.35411125025	1799
3	9391	1101.35411125025	1800
3	9391	1101.35411125025	1801
3	9392	1101.35411125025	1802
3	9392	1101.35411125025	1803
3	9397	1101.430696195413	1804
3	9397	1101.430696195413	1805
3	9397	1101.430696195413	1806
3	9397	1101.430696195413	1807
3	9397	1101.430696195413	1808
3	9423	1103.35411125025	1809
3	9423	1103.35411125025	1810
3	9429	1105.35411125025	1811
3	9429	1105.35411125025	1812
3	9434	1105.85411125025	1813
3	9434	1105.85411125025	1814
3	9437	1105.930696195413	1815
3	9437	1105.930696195413	1816
3	9437	1105.930696195413	1817
3	9437	1105.930696195413	1818
3	9437	1105.930696195413	1819
3	9459	1107.35411125025	1820
3	9459	1107.35411125025	1821
3	9467	1109.35411125025	1822
3	9467	1109.35411125025	1823
3	9472	1110.35411125025	1824
3	9472	1110.35411125025	1825
3	9475	1110.430696195413	1826
3	9475	1110.430696195413	1827
3	9475	1110.430696195413	1828
3	9475	1110.430696195413	1829
3	9475	1110.430696195413	1830
3	9497	1111.35411125025	1831
3	9497	1111.35411125025	1832
3	9504	1113.35411125025	1833
3	9504	1113.35411125025	1834
3	9510	1114.85411125025	1835
3	9510	1114.85411125025	1836
3	9513	1114.930696195413	1837
3	9513	1114.930696195413	1838
3	9513	1114.930696195413	1839
3	9513	1114.930696195413	1840
3	9513	1114.930696195413	1841
3	9531	1115.35411125025	1842
3	9531	1115.35411125025	1843
3	9540	1117.35411125025	1844
3	9540	1117.35411125025	1845
3	9548	1119.35411125025	1846
3	9548	1119.35411125025	1847
3	9549	1119.35411125025	1848
3	9549	1119.35411125025	1849
3	9554	1119.430696195413	1850
3	9554	1119.430696195413	1851
3	9554	1119.430696195413	1852
3	9554	1119.430696195413	1853
3	9554	1119.430696195413	1854
3	9578	1121.35411125025	1855
3	9578	1121.35411125025	1856
3	9585	1123.35411125025	1857
3	9585	1123.35411125025	1858
3	9590	1123.85411125025	1859
3	9590	1123.85411125025	1860
3	9593	1123.930696195413	1861
3	9593	1123.930696195413	1862
3	9593	1123.930696195413	1863
3	9593	1123.930696195413	1864
3	9593	1123.930696195413	1865
3	9616	1125.35411125025	1866
3	9616	1125.35411125025	1867
3	9621	1127.35411125025	1868
3	9621	1127.35411125025	1869
3	9628	1128.35411125025	1870
3	9628	1128.35411125025	1871
3	9631	1128.430696195413	1872
3	9631	1128.430696195413	1873
3	9631	1128.430696195413	1874
3	9631	1128.430696195413	1875
3	9631	1128.430696195413	1876
3	9654	1129.35411125025	1877
3	9654	1129.35411125025	1878
3	9659	1131.35411125025	1879
3	9659	1131.35411125025	1880
3	9664	1132.85411125025	1881
3	9664	1132.85411125025	1882
3	9667	1132.930696195413	1883
3	9667	1132.930696195413	1884
3	9667	1132.930696195413	1885
3	9667	1132.930696195413	1886
3	9667	1132.930696195413	1887
3	9687	1133.35411125025	1888
3	9687	1133.35411125025	1889
3	9697	1135.35411125025	1890
3	9697	1135.35411125025	1891
3	9702	1137.35411125025	1892
3	9702	1137.35411125025	1893
3	9703	1137.35411125025	1894
3	9703	1137.35411125025	1895
3	9708	1137.430696195413	1896
3	9708	1137.430696195413	1897
3	9708	1137.430696195413	1898
3	9708	1137.430696195413	1899
3	9708	1137.430696195413	1900
3	9735	1139.35411125025	1901
3	9735	1139.35411125025	1902
3	9740	1141.35411125025	1903
3	9740	1141.35411125025	1904
3	9745	1141.85411125025	1905
3	9745	1141.85411125025	1906
3	9748	1141.930696195413	1907
3	9748	1141.930696195413	1908
3	9748	1141.930696195413	1909
3	9748	1141.930696195413	1910
3	9748	1141.930696195413	1911
3	9772	1143.35411125025	1912
3	9772	1143.35411125025	1913
3	9778	1145.35411125025	1914
3	9778	1145.35411125025	1915
3	9783	1146.35411125025	1916
3	9783	1146.35411125025	1917
3	9786	1146.430696195413	1918
3	9786	1146.430696195413	1919
3	9786	1146.430696195413	1920
3	9786	1146.430696195413	1921
3	9786	1146.430696195413	1922
3	9808	1147.35411125025	1923
3	9808	1147.35411125025	1924
3	9816	1149.35411125025	1925
3	9816	1149.35411125025	1926
3	9821	1150.85411125025	1927
3	9821	1150.85411125025	1928
3	9824	1150.930696195413	1929
3	9824	1150.930696195413	1930
3	9824	1150.930696195413	1931
3	9824	1150.930696195413	1932
3	9824	1150.930696195413	1933
3	9842	1151.35411125025	1934
3	9842	1151.35411125025	1935
3	9853	1153.35411125025	1936
3	9853	1153.35411125025	1937
3	9859	1155.35411125025	1938
3	9859	1155.35411125025	1939
3	9860	1155.35411125025	1940
3	9860	1155.35411125025	1941
3	9865	1155.430696195413	1942
3	9865	1155.430696195413	1943
3	9865	1155.430696195413	1944
3	9865	1155.430696195413	1945
3	9865	1155.430696195413	1946
3	9889	1157.35411125025	1947
3	9889	1157.35411125025	1948
3	9897	1159.35411125025	1949
3	9897	1159.35411125025	1950
3	9902	1159.85411125025	1951
3	9902	1159.85411125025	1952
3	9905	1159.930696195413	1953
3	9905	1159.930696195413	1954
3	9905	1159.930696195413	1955
3	9905	1159.930696195413	1956
3	9905	1159.930696195413	1957
3	9927	1161.35411125025	1958
3	9927	1161.35411125025	1959
3	9934	1163.35411125025	1960
3	9934	1163.35411125025	1961
3	9940	1164.35411125025	1962
3	9940	1164.35411125025	1963
3	9943	1164.430696195413	1964
3	9943	1164.430696195413	1965
3	9943	1164.430696195413	1966
3	9943	1164.430696195413	1967
3	9943	1164.430696195413	1968
3	9965	1165.35411125025	1969
3	9965	1165.35411125025	1970
3	9970	1167.35411125025	1971
3	9970	1167.35411125025	1972
3	9977	1168.85411125025	1973
3	9977	1168.85411125025	1974
3	9980	1168.930696195413	1975
3	9980	1168.930696195413	1976
3	9980	1168.930696195413	1977
3	9980	1168.930696195413	1978
3	9980	1168.930696195413	1979
3	9999	1169.35411125025	1980
3	9999	1169.35411125025	1981
3	10008	1171.35411125025	1982
3	10008	1171.35411125025	1983
3	10015	1173.35411125025	1984
3	10015	1173.35411125025	1985
3	10016	1173.35411125025	1986
3	10016	1173.35411125025	1987
3	10021	1173.430696195413	1988
3	10021	1173.430696195413	1989
3	10021	1173.430696195413	1990
3	10021	1173.430696195413	1991
3	10021	1173.430696195413	1992
3	10046	1175.35411125025	1993
3	10046	1175.35411125025	1994
3	10051	1177.35411125025	1995
3	10051	1177.35411125025	1996
3	10056	1177.85411125025	1997
3	10056	1177.85411125025	1998
3	10059	1177.930696195413	1999
3	10059	1177.930696195413	2000
3	10059	1177.930696195413	2001
3	10059	1177.930696195413	2002
3	10059	1177.930696195413	2003
3	10084	1179.35411125025	2004
3	10084	1179.35411125025	2005
3	10089	1181.35411125025	2006
3	10089	1181.35411125025	2007
3	10094	1182.35411125025	2008
3	10094	1182.35411125025	2009
3	10097	1182.430696195413	2010
3	10097	1182.430696195413	2011
3	10097	1182.430696195413	2012
3	10097	1182.430696195413	2013
3	10097	1182.430696195413	2014
3	10121	1183.35411125025	2015
3	10121	1183.35411125025	2016
3	10127	1185.35411125025	2017
3	10127	1185.35411125025	2018
3	10132	1186.85411125025	2019
3	10132	1186.85411125025	2020
3	10135	1186.930696195413	2021
3	10135	1186.930696195413	2022
3	10135	1186.930696195413	2023
3	10135	1186.930696195413	2024
3	10135	1186.930696195413	2025
3	10153	1187.35411125025	2026
3	10153	1187.35411125025	2027
3	10165	1189.35411125025	2028
3	10165	1189.35411125025	2029
3	10170	1191.35411125025	2030
3	10170	1191.35411125025	2031
3	10171	1191.35411125025	2032
3	10171	1191.35411125025	2033
3	10176	1191.430696195413	2034
3	10176	1191.430696195413	2035
3	10176	1191.430696195413	2036
3	10176	1191.430696195413	2037
3	10176	1191.430696195413	2038
3	10202	1193.35411125025	2039
3	10202	1193.35411125025	2040
3	10208	1195.35411125025	2041
3	10208	1195.35411125025	2042
3	10213	1195.85411125025	2043
3	10213	1195.85411125025	2044
3	10216	1195.930696195413	2045
3	10216	1195.930696195413	2046
3	10216	1195.930696195413	2047
3	10216	1195.930696195413	2048
3	10216	1195.930696195413	2049
3	10238	1197.35411125025	2050
3	10238	1197.35411125025	2051
3	10246	1199.35411125025	2052
3	10246	1199.35411125025	2053
3	10251	1200.35411125025	2054
3	10251	1200.35411125025	2055
3	10254	1200.430696195413	2056
3	10254	1200.430696195413	2057
3	10254	1200.430696195413	2058
3	10254	1200.430696195413	2059
3	10254	1200.430696195413	2060
3	10276	1201.35411125025	2061
3	10276	1201.35411125025	2062
3	10283	1203.35411125025	2063
3	10283	1203.35411125025	2064
3	10289	1204.85411125025	2065
3	10289	1204.85411125025	2066
3	10292	1204.930696195413	2067
3	10292	1204.930696195413	2068
3	10292	1204.930696195413	2069
3	10292	1204.930696195413	2070
3	10292	1204.930696195413	2071
3	10310	1205.35411125025	2072
3	10310	1205.35411125025	2073
3	10319	1207.35411125025	2074
3	10319	1207.35411125025	2075
3	10327	1209.35411125025	2076
3	10327	1209.35411125025	2077
3	10328	1209.35411125025	2078
3	10328	1209.35411125025	2079
3	10333	1209.430696195413	2080
3	10333	1209.430696195413	2081
3	10333	1209.430696195413	2082
3	10333	1209.430696195413	2083
3	10333	1209.430696195413	2084
3	10357	1211.35411125025	2085
3	10357	1211.35411125025	2086
3	10364	1213.35411125025	2087
3	10364	1213.35411125025	2088
3	10369	1213.85411125025	2089
3	10369	1213.85411125025	2090
3	10372	1213.930696195413	2091
3	10372	1213.930696195413	2092
3	10372	1213.930696195413	2093
3	10372	1213.930696195413	2094
3	10372	1213.930696195413	2095
3	10395	1215.35411125025	2096
3	10395	1215.35411125025	2097
3	10400	1217.35411125025	2098
3	10400	1217.35411125025	2099
3	10407	1218.35411125025	2100
3	10407	1218.35411125025	2101
3	10410	1218.430696195413	2102
3	10410	1218.430696195413	2103
3	10410	1218.430696195413	2104
3	10410	1218.430696195413	2105
3	10410	1218.430696195413	2106
3	10433	1219.35411125025	2107
3	10433	1219.35411125025	2108
3	10438	1221.35411125025	2109
3	10438	1221.35411125025	2110
3	10443	1222.85411125025	2111
3	10443	1222.85411125025	2112
3	10446	1222.930696195413	2113
3	10446	1222.930696195413	2114
3	10446	1222.930696195413	2115
3	10446	1222.930696195413	2116
3	10446	1222.930696195413	2117
3	10466	1223.35411125025	2118
3	10466	1223.35411125025	2119
3	10476	1225.35411125025	2120
3	10476	1225.35411125025	2121
3	10481	1227.35411125025	2122
3	10481	1227.35411125025	2123
3	10482	1227.35411125025	2124
3	10482	1227.35411125025	2125
3	10487	1227.430696195413	2126
3	10487	1227.430696195413	2127
3	10487	1227.430696195413	2128
3	10487	1227.430696195413	2129
3	10487	1227.430696195413	2130
3	10514	1229.35411125025	2131
3	10514	1229.35411125025	2132
3	10519	1231.35411125025	2133
3	10519	1231.35411125025	2134
3	10524	1231.85411125025	2135
3	10524	1231.85411125025	2136
3	10527	1231.930696195413	2137
3	10527	1231.930696195413	2138
3	10527	1231.930696195413	2139
3	10527	1231.930696195413	2140
3	10527	1231.930696195413	2141
3	10551	1233.35411125025	2142
3	10551	1233.35411125025	2143
3	10557	1235.35411125025	2144
3	10557	1235.35411125025	2145
3	10562	1236.35411125025	2146
3	10562	1236.35411125025	2147
3	10565	1236.430696195413	2148
3	10565	1236.430696195413	2149
3	10565	1236.430696195413	2150
3	10565	1236.430696195413	2151
3	10565	1236.430696195413	2152
3	10587	1237.35411125025	2153
3	10587	1237.35411125025	2154
3	10595	1239.35411125025	2155
3	10595	1239.35411125025	2156
3	10600	1240.85411125025	2157
3	10600	1240.85411125025	2158
3	10603	1240.930696195413	2159
3	10603	1240.930696195413	2160
3	10603	1240.930696195413	2161
3	10603	1240.930696195413	2162
3	10603	1240.930696195413	2163
3	10621	1241.35411125025	2164
3	10621	1241.35411125025	2165
3	10632	1243.35411125025	2166
3	10632	1243.35411125025	2167
3	10638	1245.35411125025	2168
3	10638	1245.35411125025	2169
3	10639	1245.35411125025	2170
3	10639	1245.35411125025	2171
3	10644	1245.430696195413	2172
3	10644	1245.430696195413	2173
3	10644	1245.430696195413	2174
3	10644	1245.430696195413	2175
3	10644	1245.430696195413	2176
3	10668	1247.35411125025	2177
3	10668	1247.35411125025	2178
3	10676	1249.35411125025	2179
3	10676	1249.35411125025	2180
3	10681	1249.85411125025	2181
3	10681	1249.85411125025	2182
3	10684	1249.930696195413	2183
3	10684	1249.930696195413	2184
3	10684	1249.930696195413	2185
3	10684	1249.930696195413	2186
3	10684	1249.930696195413	2187
3	10706	1251.35411125025	2188
3	10706	1251.35411125025	2189
3	10713	1253.35411125025	2190
3	10713	1253.35411125025	2191
3	10719	1254.35411125025	2192
3	10719	1254.35411125025	2193
3	10722	1254.430696195413	2194
3	10722	1254.430696195413	2195
3	10722	1254.430696195413	2196
3	10722	1254.430696195413	2197
3	10722	1254.430696195413	2198
3	10744	1255.35411125025	2199
3	10744	1255.35411125025	2200
3	10749	1257.35411125025	2201
3	10749	1257.35411125025	2202
3	10756	1258.85411125025	2203
3	10756	1258.85411125025	2204
3	10759	1258.930696195413	2205
3	10759	1258.930696195413	2206
3	10759	1258.930696195413	2207
3	10759	1258.930696195413	2208
3	10759	1258.930696195413	2209
3	10778	1259.35411125025	2210
3	10778	1259.35411125025	2211
3	10787	1261.35411125025	2212
3	10787	1261.35411125025	2213
3	10794	1263.35411125025	2214
3	10794	1263.35411125025	2215
3	10795	1263.35411125025	2216
3	10795	1263.35411125025	2217
3	10800	1263.430696195413	2218
3	10800	1263.430696195413	2219
3	10800	1263.430696195413	2220
3	10800	1263.430696195413	2221
3	10800	1263.430696195413	2222
3	10825	1265.35411125025	2223
3	10825	1265.35411125025	2224
3	10830	1267.35411125025	2225
3	10830	1267.35411125025	2226
3	10835	1267.85411125025	2227
3	10835	1267.85411125025	2228
3	10838	1267.930696195413	2229
3	10838	1267.930696195413	2230
3	10838	1267.930696195413	2231
3	10838	1267.930696195413	2232
3	10838	1267.930696195413	2233
3	10863	1269.35411125025	2234
3	10863	1269.35411125025	2235
3	10868	1271.35411125025	2236
3	10868	1271.35411125025	2237
3	10873	1272.35411125025	2238
3	10873	1272.35411125025	2239
3	10876	1272.430696195413	2240
3	10876	1272.430696195413	2241
3	10876	1272.430696195413	2242
3	10876	1272.430696195413	2243
3	10876	1272.430696195413	2244
3	10900	1273.35411125025	2245
3	10900	1273.35411125025	2246
3	10906	1275.35411125025	2247
3	10906	1275.35411125025	2248
3	10911	1276.85411125025	2249
3	10911	1276.85411125025	2250
3	10914	1276.930696195413	2251
3	10914	1276.930696195413	2252
3	10914	1276.930696195413	2253
3	10914	1276.930696195413	2254
3	10914	1276.930696195413	2255
3	10932	1277.35411125025	2256
3	10932	1277.35411125025	2257
3	10944	1279.35411125025	2258
3	10944	1279.35411125025	2259
3	10949	1281.35411125025	2260
3	10949	1281.35411125025	2261
3	10950	1281.35411125025	2262
3	10950	1281.35411125025	2263
3	10955	1281.430696195413	2264
3	10955	1281.430696195413	2265
3	10955	1281.430696195413	2266
3	10955	1281.430696195413	2267
3	10955	1281.430696195413	2268
3	10981	1283.35411125025	2269
3	10981	1283.35411125025	2270
3	10987	1285.35411125025	2271
3	10987	1285.35411125025	2272
3	10992	1285.85411125025	2273
3	10992	1285.85411125025	2274
3	10995	1285.930696195413	2275
3	10995	1285.930696195413	2276
3	10995	1285.930696195413	2277
3	10995	1285.930696195413	2278
3	10995	1285.930696195413	2279
3	11017	1287.35411125025	2280
3	11017	1287.35411125025	2281
3	11025	1289.35411125025	2282
3	11025	1289.35411125025	2283
3	11030	1290.35411125025	2284
3	11030	1290.35411125025	2285
3	11033	1290.430696195413	2286
3	11033	1290.430696195413	2287
3	11033	1290.430696195413	2288
3	11033	1290.430696195413	2289
3	11033	1290.430696195413	2290
3	11055	1291.35411125025	2291
3	11055	1291.35411125025	2292
3	11062	1293.35411125025	2293
3	11062	1293.35411125025	2294
3	11068	1294.85411125025	2295
3	11068	1294.85411125025	2296
3	11071	1294.930696195413	2297
3	11071	1294.930696195413	2298
3	11071	1294.930696195413	2299
3	11071	1294.930696195413	2300
3	11071	1294.930696195413	2301
3	11089	1295.35411125025	2302
3	11089	1295.35411125025	2303
3	11098	1297.35411125025	2304
3	11098	1297.35411125025	2305
3	11106	1299.35411125025	2306
3	11106	1299.35411125025	2307
3	11107	1299.35411125025	2308
3	11107	1299.35411125025	2309
3	11112	1299.430696195413	2310
3	11112	1299.430696195413	2311
3	11112	1299.430696195413	2312
3	11112	1299.430696195413	2313
3	11112	1299.430696195413	2314
3	11136	1301.35411125025	2315
3	11136	1301.35411125025	2316
3	11143	1303.35411125025	2317
3	11143	1303.35411125025	2318
3	11148	1303.85411125025	2319
3	11148	1303.85411125025	2320
3	11151	1303.930696195413	2321
3	11151	1303.930696195413	2322
3	11151	1303.930696195413	2323
3	11151	1303.930696195413	2324
3	11151	1303.930696195413	2325
3	11174	1305.35411125025	2326
3	11174	1305.35411125025	2327
3	11179	1307.35411125025	2328
3	11179	1307.35411125025	2329
3	11186	1308.35411125025	2330
3	11186	1308.35411125025	2331
3	11189	1308.430696195413	2332
3	11189	1308.430696195413	2333
3	11189	1308.430696195413	2334
3	11189	1308.430696195413	2335
3	11189	1308.430696195413	2336
3	11212	1309.35411125025	2337
3	11212	1309.35411125025	2338
3	11217	1311.35411125025	2339
3	11217	1311.35411125025	2340
3	11222	1312.85411125025	2341
3	11222	1312.85411125025	2342
3	11225	1312.930696195413	2343
3	11225	1312.930696195413	2344
3	11225	1312.930696195413	2345
3	11225	1312.930696195413	2346
3	11225	1312.930696195413	2347
3	11245	1313.35411125025	2348
3	11245	1313.35411125025	2349
3	11255	1315.35411125025	2350
3	11255	1315.35411125025	2351
3	11260	1317.35411125025	2352
3	11260	1317.35411125025	2353
3	11261	1317.35411125025	2354
3	11261	1317.35411125025	2355
3	11266	1317.430696195413	2356
3	11266	1317.430696195413	2357
3	11266	1317.430696195413	2358
3	11266	1317.430696195413	2359
3	11266	1317.430696195413	2360
3	11293	1319.35411125025	2361
3	11293	1319.35411125025	2362
3	11298	1321.35411125025	2363
3	11298	1321.35411125025	2364
3	11303	1321.85411125025	2365
3	11303	1321.85411125025	2366
3	11306	1321.930696195413	2367
3	11306	1321.930696195413	2368
3	11306	1321.930696195413	2369
3	11306	1321.930696195413	2370
3	11306	1321.930696195413	2371
3	11330	1323.35411125025	2372
3	11330	1323.35411125025	2373
3	11336	1325.35411125025	2374
3	11336	1325.35411125025	2375
3	11341	1326.35411125025	2376
3	11341	1326.35411125025	2377
3	11344	1326.430696195413	2378
3	11344	1326.430696195413	2379
3	11344	1326.430696195413	2380
3	11344	1326.430696195413	2381
3	11344	1326.430696195413	2382
3	11366	1327.35411125025	2383
3	11366	1327.35411125025	2384
3	11374	1329.35411125025	2385
3	11374	1329.35411125025	2386
3	11379	1330.85411125025	2387
3	11379	1330.85411125025	2388
3	11382	1330.930696195413	2389
3	11382	1330.930696195413	2390
3	11382	1330.930696195413	2391
3	11382	1330.930696195413	2392
3	11382	1330.930696195413	2393
3	11400	1331.35411125025	2394
3	11400	1331.35411125025	2395
3	11411	1333.35411125025	2396
3	11411	1333.35411125025	2397
3	11417	1335.35411125025	2398
3	11417	1335.35411125025	2399
3	11418	1335.35411125025	2400
3	11418	1335.35411125025	2401
3	11423	1335.430696195413	2402
3	11423	1335.430696195413	2403
3	11423	1335.430696195413	2404
3	11423	1335.430696195413	2405
3	11423	1335.430696195413	2406
3	11447	1337.35411125025	2407
3	11447	1337.35411125025	2408
3	11455	1339.35411125025	2409
3	11455	1339.35411125025	2410
3	11460	1339.85411125025	2411
3	11460	1339.85411125025	2412
3	11463	1339.930696195413	2413
3	11463	1339.930696195413	2414
3	11463	1339.930696195413	2415
3	11463	1339.930696195413	2416
3	11463	1339.930696195413	2417
3	11485	1341.35411125025	2418
3	11485	1341.35411125025	2419
3	11492	1343.35411125025	2420
3	11492	1343.35411125025	2421
3	11498	1344.35411125025	2422
3	11498	1344.35411125025	2423
3	11501	1344.430696195413	2424
3	11501	1344.430696195413	2425
3	11501	1344.430696195413	2426
3	11501	1344.430696195413	2427
3	11501	1344.430696195413	2428
3	11523	1345.35411125025	2429
3	11523	1345.35411125025	2430
3	11528	1347.35411125025	2431
3	11528	1347.35411125025	2432
3	11535	1348.85411125025	2433
3	11535	1348.85411125025	2434
3	11538	1348.930696195413	2435
3	11538	1348.930696195413	2436
3	11538	1348.930696195413	2437
3	11538	1348.930696195413	2438
3	11538	1348.930696195413	2439
3	11557	1349.35411125025	2440
3	11557	1349.35411125025	2441
3	11566	1351.35411125025	2442
3	11566	1351.35411125025	2443
3	11573	1353.35411125025	2444
3	11573	1353.35411125025	2445
3	11574	1353.35411125025	2446
3	11574	1353.35411125025	2447
3	11579	1353.430696195413	2448
3	11579	1353.430696195413	2449
3	11579	1353.430696195413	2450
3	11579	1353.430696195413	2451
3	11579	1353.430696195413	2452
3	11604	1355.35411125025	2453
3	11604	1355.35411125025	2454
3	11609	1357.35411125025	2455
3	11609	1357.35411125025	2456
3	11614	1357.85411125025	2457
3	11614	1357.85411125025	2458
3	11617	1357.930696195413	2459
3	11617	1357.930696195413	2460
3	11617	1357.930696195413	2461
3	11617	1357.930696195413	2462
3	11617	1357.930696195413	2463
3	11642	1359.35411125025	2464
3	11642	1359.35411125025	2465
3	11647	1361.35411125025	2466
3	11647	1361.35411125025	2467
3	11652	1362.35411125025	2468
3	11652	1362.35411125025	2469
3	11655	1362.430696195413	2470
3	11655	1362.430696195413	2471
3	11655	1362.430696195413	2472
3	11655	1362.430696195413	2473
3	11655	1362.430696195413	2474
3	11679	1363.35411125025	2475
3	11679	1363.35411125025	2476
3	11685	1365.35411125025	2477
3	11685	1365.35411125025	2478
3	11690	1366.85411125025	2479
3	11690	1366.85411125025	2480
3	11693	1366.930696195413	2481
3	11693	1366.930696195413	2482
3	11693	1366.930696195413	2483
3	11693	1366.930696195413	2484
3	11693	1366.930696195413	2485
3	11711	1367.35411125025	2486
3	11711	1367.35411125025	2487
3	11723	1369.35411125025	2488
3	11723	1369.35411125025	2489
3	11728	1371.35411125025	2490
3	11728	1371.35411125025	2491
3	11729	1371.35411125025	2492
3	11729	1371.35411125025	2493
3	11734	1371.430696195413	2494
3	11734	1371.430696195413	2495
3	11734	1371.430696195413	2496
3	11734	1371.430696195413	2497
3	11734	1371.430696195413	2498
3	11760	1373.35411125025	2499
3	11760	1373.35411125025	2500
3	11766	1375.35411125025	2501
3	11766	1375.35411125025	2502
3	11771	1375.85411125025	2503
3	11771	1375.85411125025	2504
3	11774	1375.930696195413	2505
3	11774	1375.930696195413	2506
3	11774	1375.930696195413	2507
3	11774	1375.930696195413	2508
3	11774	1375.930696195413	2509
3	11796	1377.35411125025	2510
3	11796	1377.35411125025	2511
3	11804	1379.35411125025	2512
3	11804	1379.35411125025	2513
3	11809	1380.35411125025	2514
3	11809	1380.35411125025	2515
3	11812	1380.430696195413	2516
3	11812	1380.430696195413	2517
3	11812	1380.430696195413	2518
3	11812	1380.430696195413	2519
3	11812	1380.430696195413	2520
3	11834	1381.35411125025	2521
3	11834	1381.35411125025	2522
3	11841	1383.35411125025	2523
3	11841	1383.35411125025	2524
3	11847	1384.85411125025	2525
3	11847	1384.85411125025	2526
3	11850	1384.930696195413	2527
3	11850	1384.930696195413	2528
3	11850	1384.930696195413	2529
3	11850	1384.930696195413	2530
3	11850	1384.930696195413	2531
3	11868	1385.35411125025	2532
3	11868	1385.35411125025	2533
3	11877	1387.35411125025	2534
3	11877	1387.35411125025	2535
3	11885	1389.35411125025	2536
3	11885	1389.35411125025	2537
3	11886	1389.35411125025	2538
3	11886	1389.35411125025	2539
3	11891	1389.430696195413	2540
3	11891	1389.430696195413	2541
3	11891	1389.430696195413	2542
3	11891	1389.430696195413	2543
3	11891	1389.430696195413	2544
3	11915	1391.35411125025	2545
3	11915	1391.35411125025	2546
3	11922	1393.35411125025	2547
3	11922	1393.35411125025	2548
3	11927	1393.85411125025	2549
3	11927	1393.85411125025	2550
3	11930	1393.930696195413	2551
3	11930	1393.930696195413	2552
3	11930	1393.930696195413	2553
3	11930	1393.930696195413	2554
3	11930	1393.930696195413	2555
3	11953	1395.35411125025	2556
3	11953	1395.35411125025	2557
3	11958	1397.35411125025	2558
3	11958	1397.35411125025	2559
3	11965	1398.35411125025	2560
3	11965	1398.35411125025	2561
3	11968	1398.430696195413	2562
3	11968	1398.430696195413	2563
3	11968	1398.430696195413	2564
3	11968	1398.430696195413	2565
3	11968	1398.430696195413	2566
3	11991	1399.35411125025	2567
3	11991	1399.35411125025	2568
3	11996	1401.35411125025	2569
[...]
24	5191	609.344695400324	60
24	5216	610.844695400324	61
24	5222	612.844695400324	62
24	5228	613.844695400324	63
24	5254	614.844695400324	64
24	5260	616.844695400324	65
24	5266	618.344695400324	66
24	5287	618.844695400324	67
24	5297	620.844695400324	68
24	5304	622.844695400324	69
24	5305	622.844695400324	70
24	5335	624.844695400324	71
24	5341	626.844695400324	72
24	5346	627.344695400324	73
24	5372	628.844695400324	74
24	5378	630.844695400324	75
24	5384	631.844695400324	76
24	5409	632.844695400324	77
24	5416	634.844695400324	78
24	5422	636.344695400324	79
24	5443	636.844695400324	80
24	5453	638.844695400324	81
24	5460	640.844695400324	82
24	5461	640.844695400324	83
24	5490	642.844695400324	84
24	5497	644.844695400324	85
24	5502	645.344695400324	86
24	5528	646.844695400324	87
24	5534	648.844695400324	88
24	5540	649.844695400324	89
24	5565	650.844695400324	90
24	5571	652.844695400324	91
24	5578	654.344695400324	92
24	5599	654.844695400324	93
24	5609	656.844695400324	94
24	5645	660.844695400324	95
24	5651	662.844695400324	96
24	5656	663.344695400324	97
24	5683	664.844695400324	98
24	5689	666.844695400324	99
24	5694	667.844695400324	100
24	5719	668.844695400324	101
24	5726	670.844695400324	102
24	5732	672.344695400324	103
24	5753	672.844695400324	104
24	5764	674.844695400324	105
24	5771	676.844695400324	106
24	5772	676.844695400324	107
24	5800	678.844695400324	108
24	5807	680.844695400324	109
24	6312	743.767043100486	110
24	6331	744.267043100486	111
24	6339	746.267043100486	112
24	6347	748.267043100486	113
24	6348	748.267043100486	114
24	6380	750.267043100486	115
24	6385	752.267043100486	116
24	6390	752.767043100486	117
24	6418	754.267043100486	118
24	6423	756.267043100486	119
24	6428	757.267043100486	120
24	6455	758.267043100486	121
24	6461	760.267043100486	122
24	6466	761.767043100486	123
24	6487	762.267043100486	124
24	6499	764.267043100486	125
24	6505	766.267043100486	126
24	6506	766.267043100486	127
24	6536	768.267043100486	128
24	6542	770.267043100486	129
24	6547	770.767043100486	130
24	6572	772.267043100486	131
24	6580	774.267043100486	132
24	6585	775.267043100486	133
24	6610	776.267043100486	134
24	6617	778.267043100486	135
24	6623	779.767043100486	136
24	6644	780.267043100486	137
24	6653	782.267043100486	138
24	6662	784.267043100486	139
24	6663	784.267043100486	140
24	6691	786.267043100486	141
24	6698	788.267043100486	142
24	6703	788.767043100486	143
24	6729	790.267043100486	144
24	6734	792.267043100486	145
24	6741	793.267043100486	146
24	6767	794.267043100486	147
24	6772	796.267043100486	148
24	6777	797.767043100486	149
24	6800	798.267043100486	150
24	6810	800.267043100486	151
24	6816	802.267043100486	152
24	6817	802.267043100486	153
24	6848	804.267043100486	154
24	6853	806.267043100486	155
24	6858	806.767043100486	156
24	6885	808.267043100486	157
24	6891	810.267043100486	158
24	6896	811.267043100486	159
24	6921	812.267043100486	160
24	6929	814.267043100486	161
24	6934	815.767043100486	162
24	6955	816.267043100486	163
24	6966	818.267043100486	164
24	6973	820.267043100486	165
24	6974	820.267043100486	166
24	7002	822.267043100486	167
24	7010	824.267043100486	168
24	7015	824.767043100486	169
24	7040	826.267043100486	170
24	7047	828.267043100486	171
24	7053	829.267043100486	172
24	7078	830.267043100486	173
24	7083	832.267043100486	174
24	7090	833.767043100486	175
24	7112	834.267043100486	176
24	7121	836.267043100486	177
24	7129	838.267043100486	178
24	7130	838.267043100486	179
24	7159	840.267043100486	180
24	7164	842.267043100486	181
24	7169	842.767043100486	182
24	7197	844.267043100486	183
24	7202	846.267043100486	184
24	7207	847.267043100486	185
24	7234	848.267043100486	186
24	7240	850.267043100486	187
24	7245	851.767043100486	188
24	7266	852.267043100486	189
24	7278	854.267043100486	190
24	7284	856.267043100486	191
24	7285	856.267043100486	192
24	7315	858.267043100486	193
24	7321	860.267043100486	194
24	7326	860.767043100486	195
24	7351	862.267043100486	196
24	7359	864.267043100486	197
24	7364	865.267043100486	198
24	7389	866.267043100486	199
24	7396	868.267043100486	200
24	7402	869.767043100486	201
24	7423	870.267043100486	202
24	7432	872.267043100486	203
24	7441	874.267043100486	204
24	7442	874.267043100486	205
24	7470	876.267043100486	206
24	7477	878.267043100486	207
24	7482	878.767043100486	208
24	7508	880.267043100486	209
24	7513	882.267043100486	210
24	7520	883.267043100486	211
24	7546	884.267043100486	212
24	7551	886.267043100486	213
24	7556	887.767043100486	214
24	7579	888.267043100486	215
24	7589	890.267043100486	216
24	7595	892.267043100486	217
24	7596	892.267043100486	218
24	7627	894.267043100486	219
24	7632	896.267043100486	220
24	7637	896.767043100486	221
24	7664	898.267043100486	222
24	7670	900.267043100486	223
24	7675	901.267043100486	224
24	7700	902.267043100486	225
24	7708	904.267043100486	226
24	7713	905.767043100486	227
24	7734	906.267043100486	228
24	7745	908.267043100486	229
24	7752	910.267043100486	230
24	7753	910.267043100486	231
24	7781	912.267043100486	232
24	7789	914.267043100486	233
24	7794	914.767043100486	234
24	7819	916.267043100486	235
24	7826	918.267043100486	236
24	7832	919.267043100486	237
24	7857	920.267043100486	238
24	7862	922.267043100486	239
24	7869	923.767043100486	240
24	7891	924.267043100486	241
24	7900	926.267043100486	242
24	7908	928.267043100486	243
24	7909	928.267043100486	244
24	7938	930.267043100486	245
24	7943	932.267043100486	246
24	7948	932.767043100486	247
24	7976	934.267043100486	248
24	7981	936.267043100486	249
24	7986	937.267043100486	250
24	8013	938.267043100486	251
24	8019	940.267043100486	252
24	8024	941.767043100486	253
24	8045	942.267043100486	254
24	8057	944.267043100486	255
24	8063	946.267043100486	256
24	8064	946.267043100486	257
24	8094	948.267043100486	258
24	8100	950.267043100486	259
24	8105	950.767043100486	260
24	8130	952.267043100486	261
24	8138	954.267043100486	262
24	8143	955.267043100486	263
24	8168	956.267043100486	264
24	8175	958.267043100486	265
24	8181	959.767043100486	266
24	8202	960.267043100486	267
24	8211	962.267043100486	268
24	8220	964.267043100486	269
24	8221	964.267043100486	270
24	8249	966.267043100486	271
24	8256	968.267043100486	272
24	8261	968.767043100486	273
24	8287	970.267043100486	274
24	8292	972.267043100486	275
24	8299	973.267043100486	276
24	8325	974.267043100486	277
24	8330	976.267043100486	278
24	8335	977.767043100486	279
24	8358	978.267043100486	280
24	8368	980.267043100486	281
24	8374	982.267043100486	282
24	8375	982.267043100486	283
24	8406	984.267043100486	284
24	8411	986.267043100486	285
24	8416	986.767043100486	286
24	8443	988.267043100486	287
24	8449	990.267043100486	288
24	8454	991.267043100486	289
24	8479	992.267043100486	290
24	8487	994.267043100486	291
24	8492	995.767043100486	292
24	8513	996.267043100486	293
24	8524	998.267043100486	294
24	8531	1000.267043100486	295
24	8532	1000.267043100486	296
24	8560	1002.267043100486	297
24	8568	1004.267043100486	298
24	8573	1004.767043100486	299
24	8598	1006.267043100486	300
24	20354	2377.084236345931	301
24	20367	2379.084236345931	302
24	20372	2380.084236345931	303
24	20394	2381.084236345931	304
24	20407	2383.084236345931	305
24	20413	2384.584236345931	306
24	20434	2385.084236345931	307
24	20445	2387.084236345931	308
24	20452	2389.084236345931	309
24	20453	2389.084236345931	310
24	20482	2391.084236345931	311
24	20488	2393.084236345931	312
24	20493	2393.584236345931	313
24	20519	2395.084236345931	314
24	20525	2397.084236345931	315
24	20531	2398.084236345931	316
24	20557	2399.084236345931	317
24	20563	2401.084236345931	318
24	20568	2402.584236345931	319
24	20590	2403.084236345931	320
24	20600	2405.084236345931	321
24	20607	2407.084236345931	322
24	20608	2407.084236345931	323
24	20638	2409.084236345931	324
24	20644	2411.084236345931	325
24	20649	2411.584236345931	326
24	20675	2413.084236345931	327
24	20681	2415.084236345931	328
24	20687	2416.084236345931	329
24	20712	2417.084236345931	330
24	20719	2419.084236345931	331
24	20724	2420.584236345931	332
24	20746	2421.084236345931	333
24	20756	2423.084236345931	334
24	20763	2425.084236345931	335
24	20764	2425.084236345931	336
24	20793	2427.084236345931	337
24	20800	2429.084236345931	338
24	20805	2429.584236345931	339
24	20831	2431.084236345931	340
24	20837	2433.084236345931	341
24	20843	2434.084236345931	342
24	20868	2435.084236345931	343
24	20874	2437.084236345931	344
24	20880	2438.584236345931	345
24	20902	2439.084236345931	346
24	20912	2441.084236345931	347
24	20919	2443.084236345931	348
24	20920	2443.084236345931	349
24	20949	2445.084236345931	350
24	20955	2447.084236345931	351
24	20960	2447.584236345931	352
24	20987	2449.084236345931	353
24	20993	2451.084236345931	354
24	20998	2452.084236345931	355
24	21024	2453.084236345931	356
24	21030	2455.084236345931	357
24	21036	2456.584236345931	358
24	21057	2457.084236345931	359
24	21068	2459.084236345931	360
24	21075	2461.084236345931	361
24	21076	2461.084236345931	362
24	21105	2463.084236345931	363
24	21111	2465.084236345931	364
24	21116	2465.584236345931	365
24	21142	2467.084236345931	366
24	21149	2469.084236345931	367
24	21154	2470.084236345931	368
24	21180	2471.084236345931	369
24	21186	2473.084236345931	370
24	21192	2474.584236345931	371
24	21213	2475.084236345931	372
24	21223	2477.084236345931	373
24	21231	2479.084236345931	374
24	21232	2479.084236345931	375
24	21261	2481.084236345931	376
24	21267	2483.084236345931	377
24	21272	2483.584236345931	378
24	21298	2485.084236345931	379
24	21304	2487.084236345931	380
24	21310	2488.084236345931	381
24	21336	2489.084236345931	382
24	21342	2491.084236345931	383
24	21347	2492.584236345931	384
24	21369	2493.084236345931	385
24	21379	2495.084236345931	386
24	21386	2497.084236345931	387
24	21387	2497.084236345931	388
24	21417	2499.084236345931	389
24	21423	2501.084236345931	390
24	21428	2501.584236345931	391
24	21454	2503.084236345931	392
24	21460	2505.084236345931	393
24	21466	2506.084236345931	394
24	21491	2507.084236345931	395
24	21498	2509.084236345931	396
24	21503	2510.584236345931	397
24	21525	2511.084236345931	398
24	21535	2513.084236345931	399
24	21542	2515.084236345931	400
24	21543	2515.084236345931	401
24	21572	2517.084236345931	402
24	21579	2519.084236345931	403
24	21584	2519.584236345931	404
24	21610	2521.084236345931	405
24	21616	2523.084236345931	406
24	21622	2524.084236345931	407
24	21647	2525.084236345931	408
24	21653	2527.084236345931	409
24	21659	2528.584236345931	410
24	21681	2529.084236345931	411
24	21691	2531.084236345931	412
24	21698	2533.084236345931	413
24	21699	2533.084236345931	414
24	21728	2535.084236345931	415
24	21734	2537.084236345931	416
24	21739	2537.584236345931	417
24	21766	2539.084236345931	418
24	21772	2541.084236345931	419
24	21777	2542.084236345931	420
24	21803	2543.084236345931	421
24	21809	2545.084236345931	422
24	21815	2546.584236345931	423
24	21836	2547.084236345931	424
24	21847	2549.084236345931	425
24	21854	2551.084236345931	426
24	21855	2551.084236345931	427
24	21884	2553.084236345931	428
24	21890	2555.084236345931	429
24	21895	2555.584236345931	430
24	21921	2557.084236345931	431
24	21928	2559.084236345931	432
24	21933	2560.084236345931	433
24	21959	2561.084236345931	434
24	21965	2563.084236345931	435
24	21971	2564.584236345931	436
24	21992	2565.084236345931	437
24	22002	2567.084236345931	438
24	22010	2569.084236345931	439
24	22011	2569.084236345931	440
24	22040	2571.084236345931	441
24	22046	2573.084236345931	442
24	22051	2573.584236345931	443
24	22077	2575.084236345931	444
24	22083	2577.084236345931	445
24	22089	2578.084236345931	446
24	22115	2579.084236345931	447
24	22121	2581.084236345931	448
24	22126	2582.584236345931	449
24	22148	2583.084236345931	450
24	22158	2585.084236345931	451
24	22165	2587.084236345931	452
24	22166	2587.084236345931	453
24	22196	2589.084236345931	454
24	22202	2591.084236345931	455
24	22207	2591.584236345931	456
24	22233	2593.084236345931	457
24	22239	2595.084236345931	458
24	22245	2596.084236345931	459
24	22270	2597.084236345931	460
24	22277	2599.084236345931	461
24	22282	2600.584236345931	462
24	22304	2601.084236345931	463
24	22314	2603.084236345931	464
24	22321	2605.084236345931	465
24	22322	2605.084236345931	466
24	22351	2607.084236345931	467
24	22358	2609.084236345931	468
24	22363	2609.584236345931	469
24	22389	2611.084236345931	470
24	22395	2613.084236345931	471
24	22401	2614.084236345931	472
24	22426	2615.084236345931	473
24	22432	2617.084236345931	474
24	22438	2618.584236345931	475
24	22460	2619.084236345931	476
24	22470	2621.084236345931	477
24	22477	2623.084236345931	478
24	22478	2623.084236345931	479
24	22507	2625.084236345931	480
24	22513	2627.084236345931	481
24	22518	2627.584236345931	482
24	22545	2629.084236345931	483
24	22551	2631.084236345931	484
24	22556	2632.084236345931	485
24	22582	2633.084236345931	486
24	22588	2635.084236345931	487
24	22594	2636.584236345931	488
24	22615	2637.084236345931	489
24	22626	2639.084236345931	490
24	22633	2641.084236345931	491
24	22634	2641.084236345931	492
24	22663	2643.084236345931	493
24	22669	2645.084236345931	494
24	22674	2645.584236345931	495
24	22700	2647.084236345931	496
24	22707	2649.084236345931	497
24	22712	2650.084236345931	498
24	22738	2651.084236345931	499
24	22744	2653.084236345931	500
24	22750	2654.584236345931	501
24	22771	2655.084236345931	502
24	22781	2657.084236345931	503
24	22789	2659.084236345931	504
24	22790	2659.084236345931	505
24	22819	2661.084236345931	506
24	22825	2663.084236345931	507
24	22830	2663.584236345931	508
24	22856	2665.084236345931	509
24	22862	2667.084236345931	510
24	22868	2668.084236345931	511
24	22894	2669.084236345931	512
24	22900	2671.084236345931	513
24	22905	2672.584236345931	514
24	22927	2673.084236345931	515
24	22937	2675.084236345931	516
24	22944	2677.084236345931	517
24	22945	2677.084236345931	518
24	22975	2679.084236345931	519
24	22981	2681.084236345931	520
24	22986	2681.584236345931	521
24	23012	2683.084236345931	522
24	23019	2685.084236345931	523
24	23025	2686.084236345931	524
24	23050	2687.084236345931	525
24	23057	2689.084236345931	526
24	23062	2690.584236345931	527
24	23084	2691.084236345931	528
24	23093	2693.084236345931	529
24	23101	2695.084236345931	530
24	23102	2695.084236345931	531
24	23131	2697.084236345931	532
24	23137	2699.084236345931	533
24	23142	2699.584236345931	534
24	23168	2701.084236345931	535
24	23174	2703.084236345931	536
24	23180	2704.084236345931	537
24	23205	2705.084236345931	538
24	23211	2707.084236345931	539
24	23217	2708.584236345931	540
24	23239	2709.084236345931	541
24	23249	2711.084236345931	542
24	23256	2713.084236345931	543
24	23257	2713.084236345931	544
24	23286	2715.084236345931	545
24	23292	2717.084236345931	546
24	23297	2717.584236345931	547
24	23324	2719.084236345931	548
24	23330	2721.084236345931	549
24	23335	2722.084236345931	550
24	23361	2723.084236345931	551
24	23367	2725.084236345931	552
24	23373	2726.584236345931	553
24	23394	2727.084236345931	554
24	23405	2729.084236345931	555
24	23412	2731.084236345931	556
24	23413	2731.084236345931	557
24	23442	2733.084236345931	558
24	23448	2735.084236345931	559
24	23453	2735.584236345931	560
24	23479	2737.084236345931	561
24	23486	2739.084236345931	562
24	23491	2740.084236345931	563
24	23517	2741.084236345931	564
24	23523	2743.084236345931	565
24	23529	2744.584236345931	566
24	23550	2745.084236345931	567
24	23560	2747.084236345931	568
24	23568	2749.084236345931	569
24	23569	2749.084236345931	570
24	23598	2751.084236345931	571
24	23604	2753.084236345931	572
24	23609	2753.584236345931	573
24	23635	2755.084236345931	574
24	23641	2757.084236345931	575
24	23647	2758.084236345931	576
24	23673	2759.084236345931	577
24	23679	2761.084236345931	578
24	23684	2762.584236345931	579
24	23706	2763.084236345931	580
24	23716	2765.084236345931	581
24	23723	2767.084236345931	582
24	23724	2767.084236345931	583
24	23754	2769.084236345931	584
24	23760	2771.084236345931	585
24	23765	2771.584236345931	586
24	23791	2773.084236345931	587
24	23797	2775.084236345931	588
24	23803	2776.084236345931	589
24	23828	2777.084236345931	590
24	23835	2779.084236345931	591
24	23840	2780.584236345931	592
24	23862	2781.084236345931	593
24	23872	2783.084236345931	594
24	23879	2785.084236345931	595
24	23880	2785.084236345931	596
24	23909	2787.084236345931	597
24	23916	2789.084236345931	598
24	23921	2789.584236345931	599
24	23947	2791.084236345931	600
24	23953	2793.084236345931	601
24	23959	2794.084236345931	602
24	23984	2795.084236345931	603
24	23990	2797.084236345931	604
24	23996	2798.584236345931	605
24	24018	2799.084236345931	606
24	24028	2801.084236345931	607
24	24035	2803.084236345931	608
24	24036	2803.084236345931	609
24	24065	2805.084236345931	610
24	24071	2807.084236345931	611
24	24076	2807.584236345931	612
24	24103	2809.084236345931	613
24	24109	2811.084236345931	614
24	24114	2812.084236345931	615
24	24140	2813.084236345931	616
24	24146	2815.084236345931	617
24	24152	2816.584236345931	618
24	24173	2817.084236345931	619
24	24184	2819.084236345931	620
24	24191	2821.084236345931	621
24	24192	2821.084236345931	622
24	24221	2823.084236345931	623
24	24227	2825.084236345931	624
24	24232	2825.584236345931	625
24	24258	2827.084236345931	626
24	24265	2829.084236345931	627
24	24270	2830.084236345931	628
24	24296	2831.084236345931	629
24	24302	2833.084236345931	630
24	24308	2834.584236345931	631
24	24329	2835.084236345931	632
24	24339	2837.084236345931	633
24	24347	2839.084236345931	634
24	24348	2839.084236345931	635
24	24377	2841.084236345931	636
24	24383	2843.084236345931	637
24	24388	2843.584236345931	638
24	24414	2845.084236345931	639
24	24420	2847.084236345931	640
24	24426	2848.084236345931	641
24	24452	2849.084236345931	642
24	24458	2851.084236345931	643
24	24463	2852.584236345931	644
24	24485	2853.084236345931	645
24	24495	2855.084236345931	646
24	24502	2857.084236345931	647
24	24503	2857.084236345931	648
24	24533	2859.084236345931	649
24	24539	2861.084236345931	650
24	24544	2861.584236345931	651
24	24570	2863.084236345931	652
24	24576	2865.084236345931	653
24	24582	2866.084236345931	654
24	24607	2867.084236345931	655
24	24614	2869.084236345931	656
24	24619	2870.584236345931	657
24	24641	2871.084236345931	658
24	24651	2873.084236345931	659
24	24658	2875.084236345931	660
24	24659	2875.084236345931	661
24	24688	2877.084236345931	662
24	24695	2879.084236345931	663
24	24700	2879.584236345931	664
24	24726	2881.084236345931	665
24	24732	2883.084236345931	666
24	24738	2884.084236345931	667
24	24763	2885.084236345931	668
24	24769	2887.084236345931	669
24	24775	2888.584236345931	670
24	24797	2889.084236345931	671
24	24807	2891.084236345931	672
24	24814	2893.084236345931	673
24	24815	2893.084236345931	674
24	24844	2895.084236345931	675
24	24850	2897.084236345931	676
24	24855	2897.584236345931	677
24	24882	2899.084236345931	678
24	24888	2901.084236345931	679
24	24893	2902.084236345931	680
24	24919	2903.084236345931	681
24	24925	2905.084236345931	682
24	24931	2906.584236345931	683
24	24952	2907.084236345931	684
24	24963	2909.084236345931	685
24	24970	2911.084236345931	686
24	24971	2911.084236345931	687
24	25000	2913.084236345931	688
24	25006	2915.084236345931	689
24	25011	2915.584236345931	690
24	25037	2917.084236345931	691
24	25044	2919.084236345931	692
24	25049	2920.084236345931	693
24	25471	2967.084236345931	694
24	25478	2969.084236345931	695
24	25483	2969.584236345931	696
24	25508	2971.084236345931	697
24	25515	2973.084236345931	698
24	25521	2974.084236345931	699
24	25546	2975.084236345931	700
24	25552	2977.084236345931	701
24	25558	2978.584236345931	702
24	25580	2979.084236345931	703
24	25589	2981.084236345931	704
24	25597	2983.084236345931	705
24	25598	2983.084236345931	706
24	25627	2985.084236345931	707
24	25633	2987.084236345931	708
24	25638	2987.584236345931	709
24	25665	2989.084236345931	710
24	25670	2991.084236345931	711
24	25676	2992.084236345931	712
24	25702	2993.084236345931	713
24	25708	2995.084236345931	714
24	25713	2996.584236345931	715
24	25735	2997.084236345931	716
24	25746	2999.084236345931	717
25	12544	1469.187966052112	1
25	12544	1469.187966052112	2
25	12583	1475.643097686136	3
25	12583	1475.643097686136	4

