version 2
run StaticNetwork-1-20220321-08:54:25-572
attr configname StaticNetwork
attr datetime 20220321-08:54:25
attr experiment StaticNetwork
attr inifile omnetpp.ini
attr iterationvars "$0=1, $1=7, $2=0"
attr iterationvarsf 1,7,0-
attr measurement "$0=1, $1=7, $2=0"
attr network RAFT_Network
attr processid 572
attr repetition 1
attr replication #1
attr resultdir results
attr runnumber 1
attr seedset 1
param **.servers_number 5
param **.clients_number 5
param **.client[*].requestMsgTimeout "normal(7.0s, 1.5s)"
param **.cloud.propDelay "uniform(0.1s, 0.3s)"
param **.server[*].electionTimeout "normal(5.0s, 1s)"
param **.server[*].heartbeatTimeout 2s
param **.server[*].appendEntriesTimeout 4.5s
param **.server[*].checkFailureTimeout 1s
param **.server[*].checkRecoveryTimeout 1s
param **.failureProbability 1
param **.recoveryProbability 7
param **.messageLossProbability 0

vector 0 RAFT_Network.server[0] serverState ETV
vector 1 RAFT_Network.server[1] serverState ETV
vector 2 RAFT_Network.server[2] serverState ETV
vector 3 RAFT_Network.server[3] serverState ETV
vector 4 RAFT_Network.server[4] serverState ETV
0	0	0	0
1	0	0	0
2	0	0	0
3	0	0	0
4	0	0	0
vector 5 RAFT_Network.server[2] totMsgSent ETV
vector 6 RAFT_Network.server[2] totRequestVoteMsgSent ETV
vector 7 RAFT_Network.server[0] totMsgReceived ETV
vector 8 RAFT_Network.server[0] totMsgSent ETV
vector 9 RAFT_Network.server[0] totReplyToClientRequestMsgSent ETV
vector 10 RAFT_Network.server[3] totMsgReceived ETV
vector 11 RAFT_Network.server[3] totMsgSent ETV
vector 12 RAFT_Network.server[3] totReplyToClientRequestMsgSent ETV
vector 13 RAFT_Network.server[4] totMsgSent ETV
vector 14 RAFT_Network.server[4] totRequestVoteMsgSent ETV
vector 15 RAFT_Network.server[2] totMsgReceived ETV
vector 16 RAFT_Network.server[2] totAppendEntriesMsgSent ETV
vector 17 RAFT_Network.server[2] totReplyToClientRequestMsgSent ETV
vector 18 RAFT_Network.server[1] totMsgReceived ETV
vector 19 RAFT_Network.server[1] totMsgSent ETV
vector 20 RAFT_Network.server[1] totReplyToClientRequestMsgSent ETV
vector 21 RAFT_Network.server[4] totMsgReceived ETV
vector 22 RAFT_Network.server[0] totReplyToAppendEntriesMsgSent ETV
vector 23 RAFT_Network.server[3] totReplyToAppendEntriesMsgSent ETV
vector 24 RAFT_Network.server[1] totReplyToAppendEntriesMsgSent ETV
vector 25 RAFT_Network.server[4] totReplyToClientRequestMsgSent ETV
vector 26 RAFT_Network.server[4] totReplyToAppendEntriesMsgSent ETV
0	27	5.021919424931	0
0	27	5.021919424931	0
1	34	5.069786013058	0
1	34	5.069786013058	0
2	26	5.010483204601	0
2	26	5.010483204601	1
2	32	5.060220235521	1
2	32	5.060220235521	2
3	28	5.049181574677	0
3	28	5.049181574677	0
4	29	5.049181574677	0
4	29	5.049181574677	1
4	48	5.205936151093	1
4	48	5.205936151093	0
5	26	5.010483204601	1
5	26	5.010483204601	2
5	26	5.010483204601	3
5	26	5.010483204601	4
5	32	5.060220235521	5
5	32	5.060220235521	6
5	32	5.060220235521	7
5	32	5.060220235521	8
5	33	5.065987220529	9
6	26	5.010483204601	1
6	26	5.010483204601	2
6	26	5.010483204601	3
6	26	5.010483204601	4
7	27	5.021919424931	1
7	30	5.056745220561	2
7	36	5.088387497088	3
8	27	5.021919424931	1
8	30	5.056745220561	2
8	36	5.088387497088	3
9	27	5.021919424931	1
9	30	5.056745220561	2
10	28	5.049181574677	1
10	37	5.090081940246	2
10	44	5.150432135165	3
11	28	5.049181574677	1
11	37	5.090081940246	2
11	44	5.150432135165	3
12	28	5.049181574677	1
12	44	5.150432135165	2
13	29	5.049181574677	1
13	29	5.049181574677	2
13	29	5.049181574677	3
13	29	5.049181574677	4
13	45	5.163784894245	5
13	48	5.205936151093	6
14	29	5.049181574677	1
14	29	5.049181574677	2
14	29	5.049181574677	3
14	29	5.049181574677	4
15	31	5.059093909465	1
15	32	5.060220235521	2
15	33	5.065987220529	3
15	39	5.108008925681	4
15	40	5.115724251449	5
15	42	5.12819674668	6
15	46	5.174823555089	7
15	47	5.200169166085	8
15	50	5.225773772615	9
16	32	5.060220235521	1
16	32	5.060220235521	2
16	32	5.060220235521	3
16	32	5.060220235521	4
17	33	5.065987220529	1
18	34	5.069786013058	1
18	38	5.09764558613	2
18	41	5.125561981622	3
19	34	5.069786013058	1
19	38	5.09764558613	2
19	41	5.125561981622	3
20	34	5.069786013058	1
20	38	5.09764558613	2
21	35	5.071656455851	1
21	43	5.12983995924	2
21	45	5.163784894245	3
21	48	5.205936151093	4
21	49	5.216974811937	5
21	51	6	6
22	36	5.088387497088	1
23	37	5.090081940246	1
24	41	5.125561981622	1
25	45	5.163784894245	1
26	48	5.205936151093	1
7	63	6.601313422944	4
7	64	6.773824777308	5
21	66	6.946336131672	7
5	75	7.060220235521	10
5	75	7.060220235521	11
5	75	7.060220235521	12
5	75	7.060220235521	13
7	76	7.074783802557	6
8	76	7.074783802557	4
10	78	7.111958287091	4
11	78	7.111958287091	4
13	84	7.248503115762	7
15	79	7.115724251449	10
15	81	7.157744845598	11
15	82	7.185830797769	12
15	86	7.277096062855	13
15	87	7.277096062855	14
15	90	7.66606761815	15
15	91	7.66606761815	16
16	75	7.060220235521	5
16	75	7.060220235521	6
16	75	7.060220235521	7
16	75	7.060220235521	8
18	80	7.119521932975	4
19	80	7.119521932975	4
21	84	7.248503115762	8
22	76	7.074783802557	2
23	78	7.111958287091	2
24	80	7.119521932975	2
26	84	7.248503115762	2
18	103	8.843212184066	5
21	101	8.401139055954	9
5	112	9.060220235521	14
5	112	9.060220235521	15
5	112	9.060220235521	16
5	112	9.060220235521	17
7	113	9.071656455851	7
8	113	9.071656455851	5
10	115	9.108830940385	5
11	115	9.108830940385	5
15	114	9.088387497088	17
15	116	9.108830940385	18
16	112	9.060220235521	9
16	112	9.060220235521	10
16	112	9.060220235521	11
16	112	9.060220235521	12
18	117	9.115724251449	6
19	117	9.115724251449	5
22	113	9.071656455851	3
23	115	9.108830940385	3
24	117	9.115724251449	3
15	118	9.116394586269	19
15	120	9.153947164072	20
13	122	9.200169166085	8
15	123	9.211207826929	21
15	124	9.342860264905	22
21	122	9.200169166085	10
26	122	9.200169166085	3
5	125	9.560220235521	18
5	125	9.560220235521	19
5	125	9.560220235521	20
5	125	9.560220235521	21
5	130	9.625561981622	22
5	130	9.625561981622	23
5	130	9.625561981622	24
5	130	9.625561981622	25
5	130	9.625561981622	26
7	126	9.588387497088	8
8	126	9.588387497088	6
10	127	9.615724251449	6
11	127	9.615724251449	6
15	129	9.623287897333	23
15	130	9.625561981622	24
15	131	9.661510809956	25
16	125	9.560220235521	13
16	125	9.560220235521	14
16	125	9.560220235521	15
16	125	9.560220235521	16
17	130	9.625561981622	2
17	130	9.625561981622	3
17	130	9.625561981622	4
17	130	9.625561981622	5
17	130	9.625561981622	6
18	128	9.623287897333	7
19	128	9.623287897333	6
22	126	9.588387497088	4
23	127	9.615724251449	4
24	128	9.623287897333	4
vector 27 RAFT_Network.client[1] responseTime ETV
vector 28 RAFT_Network.client[0] responseTime ETV
vector 29 RAFT_Network.client[4] responseTime ETV
vector 30 RAFT_Network.client[2] responseTime ETV
vector 31 RAFT_Network.client[3] responseTime ETV
13	137	9.870327954518	9
15	142	9.881366615362	26
21	137	9.870327954518	11
26	137	9.870327954518	4
27	138	9.870327954518	3.604268616475
28	139	9.87278003699	3.39850184333
29	140	9.873512328168	1.811856901426
30	141	9.877642325008	3.545002591887
31	147	9.973581209792	1.587442699823
0	147	9.9766347407	0
1	147	9.9766347407	0
2	147	9.9766347407	2
3	147	9.9766347407	0
4	147	9.9766347407	0

